protein_ligand_0
     RDKit          3D

 23 24  0  0  0  0  0  0  0  0999 V2000
    7.1428   12.5166   -2.5251 C   0  0  0  0  0  0  0  0  0  0  0  0
    6.3480   11.2662   -2.2865 C   0  0  0  0  0  0  0  0  0  0  0  0
    4.9458   11.5603   -2.8612 C   0  0  0  0  0  0  0  0  0  0  0  0
    6.1715   11.0211   -0.8455 C   0  0  0  0  0  0  0  0  0  0  0  0
    6.8426   10.0850   -3.1009 C   0  0  1  0  0  0  0  0  0  0  0  0
    8.2399    9.8234   -2.6549 N   0  0  0  0  0  0  0  0  0  0  0  0
    9.1244    9.1805   -3.5457 C   0  0  0  0  0  0  0  0  0  0  0  0
    8.7591    8.9170   -4.7059 O   0  0  0  0  0  0  0  0  0  0  0  0
   10.4866    8.8419   -3.0353 C   0  0  0  0  0  0  0  0  0  0  0  0
   10.4337    8.0180   -1.9400 F   0  0  0  0  0  0  0  0  0  0  0  0
   11.1874    8.1657   -4.0393 F   0  0  0  0  0  0  0  0  0  0  0  0
   11.1334   10.0260   -2.7057 F   0  0  0  0  0  0  0  0  0  0  0  0
    6.0424    8.8810   -2.9957 C   0  0  0  0  0  0  0  0  0  0  0  0
    6.2414    8.1944   -1.9081 O   0  0  0  0  0  0  0  0  0  0  0  0
    5.1038    8.3252   -3.8391 N   0  0  0  0  0  0  0  0  0  0  0  0
    4.6727    8.8851   -5.1464 C   0  0  0  0  0  0  0  0  0  0  0  0
    4.4722    7.6150   -5.9855 C   0  0  0  0  0  0  0  0  0  0  0  0
    3.9865    6.6443   -4.9718 C   0  0  0  0  0  0  0  0  0  0  0  0
    3.2825    5.5170   -5.1125 N   0  0  0  0  0  0  0  0  0  0  0  0
    2.8994    4.7673   -4.0572 C   0  0  0  0  0  0  0  0  0  0  0  0
    3.2445    5.1760   -2.7916 C   0  0  0  0  0  0  0  0  0  0  0  0
    3.9697    6.3365   -2.6475 C   0  0  0  0  0  0  0  0  0  0  0  0
    4.3721    7.1172   -3.7149 C   0  0  0  0  0  0  0  0  0  0  0  0
  1  2  1  0
  2  3  1  0
  2  4  1  0
  2  5  1  0
  5  6  1  1
  6  7  1  0
  7  8  2  0
  7  9  1  0
  9 10  1  0
  9 11  1  0
  9 12  1  0
  5 13  1  0
 13 14  2  0
 13 15  1  0
 15 16  1  0
 16 17  1  0
 17 18  1  0
 18 19  2  0
 19 20  1  0
 20 21  2  0
 21 22  1  0
 22 23  2  0
 23 15  1  0
 23 18  1  0
M  END
$$$$
