protein_ligand_0
     RDKit          3D

 22 23  0  0  0  0  0  0  0  0999 V2000
    2.9035   11.1437   -5.4340 C   0  0  0  0  0  0  0  0  0  0  0  0
    4.2229   11.2143   -4.8000 C   0  0  0  0  0  0  0  0  0  0  0  0
    5.2963   11.2760   -5.8836 C   0  0  0  0  0  0  0  0  0  0  0  0
    4.6075   10.2916   -3.7727 C   0  0  0  0  0  0  0  0  0  0  0  0
    4.2576    8.9754   -3.9485 N   0  0  0  0  0  0  0  0  0  0  0  0
    4.5109    8.0160   -3.0639 C   0  0  0  0  0  0  0  0  0  0  0  0
    4.0996    6.6632   -3.3479 N   0  0  0  0  0  0  0  0  0  0  0  0
    3.4414    6.3472   -4.5514 C   0  0  0  0  0  0  0  0  0  0  0  0
    3.2760    7.2446   -5.4099 O   0  0  0  0  0  0  0  0  0  0  0  0
    2.9280    4.9868   -4.8559 C   0  0  0  0  0  0  0  0  0  0  0  0
    3.9274    4.0640   -4.8827 F   0  0  0  0  0  0  0  0  0  0  0  0
    1.9308    4.6054   -3.9806 F   0  0  0  0  0  0  0  0  0  0  0  0
    2.3645    5.0186   -6.1311 F   0  0  0  0  0  0  0  0  0  0  0  0
    5.1364    8.2856   -1.9242 N   0  0  0  0  0  0  0  0  0  0  0  0
    5.5200    9.5346   -1.6567 C   0  0  0  0  0  0  0  0  0  0  0  0
    5.2492   10.5491   -2.6006 C   0  0  0  0  0  0  0  0  0  0  0  0
    5.7282   11.8600   -2.3054 C   0  0  0  0  0  0  0  0  0  0  0  0
    6.7538   12.3937   -3.0269 C   0  0  0  0  0  0  0  0  0  0  0  0
    7.2120   13.6706   -2.8116 C   0  0  0  0  0  0  0  0  0  0  0  0
    6.5994   14.4377   -1.8184 C   0  0  0  0  0  0  0  0  0  0  0  0
    5.5622   13.9252   -1.0752 C   0  0  0  0  0  0  0  0  0  0  0  0
    5.1454   12.6304   -1.3405 C   0  0  0  0  0  0  0  0  0  0  0  0
  1  2  1  0
  2  3  1  0
  2  4  1  0
  4  5  2  0
  5  6  1  0
  6  7  1  0
  7  8  1  0
  8  9  2  0
  8 10  1  0
 10 11  1  0
 10 12  1  0
 10 13  1  0
  6 14  2  0
 14 15  1  0
 15 16  2  0
 16 17  1  0
 17 18  2  0
 18 19  1  0
 19 20  2  0
 20 21  1  0
 21 22  2  0
 16  4  1  0
 22 17  1  0
M  END
$$$$
