protein_ligand_0
     RDKit          3D

 23 24  0  0  0  0  0  0  0  0999 V2000
    7.7397   10.2704   -5.7510 C   0  0  0  0  0  0  0  0  0  0  0  0
    8.5511   10.5591   -4.5220 C   0  0  0  0  0  0  0  0  0  0  0  0
    8.6083   12.0987   -4.4254 C   0  0  0  0  0  0  0  0  0  0  0  0
    9.9384   10.0937   -4.6853 C   0  0  0  0  0  0  0  0  0  0  0  0
    7.8586   10.1323   -3.2408 C   0  0  1  0  0  0  0  0  0  0  0  0
    8.6733   10.6810   -2.1205 N   0  0  0  0  0  0  0  0  0  0  0  0
    8.8838    9.8770   -0.9811 C   0  0  0  0  0  0  0  0  0  0  0  0
    8.5529    8.6772   -0.9944 O   0  0  0  0  0  0  0  0  0  0  0  0
    9.5084   10.5255    0.2106 C   0  0  0  0  0  0  0  0  0  0  0  0
    8.5857   10.7991    1.1879 F   0  0  0  0  0  0  0  0  0  0  0  0
   10.4535    9.6499    0.7550 F   0  0  0  0  0  0  0  0  0  0  0  0
   10.1196   11.7012   -0.2055 F   0  0  0  0  0  0  0  0  0  0  0  0
    6.4762   10.5497   -3.1147 C   0  0  0  0  0  0  0  0  0  0  0  0
    6.3155   11.8194   -2.8781 O   0  0  0  0  0  0  0  0  0  0  0  0
    5.2930    9.8467   -3.2000 N   0  0  0  0  0  0  0  0  0  0  0  0
    3.9504   10.3593   -2.8216 C   0  0  0  0  0  0  0  0  0  0  0  0
    3.0533    9.7202   -3.8914 C   0  0  0  0  0  0  0  0  0  0  0  0
    3.7258    8.4169   -4.1251 C   0  0  0  0  0  0  0  0  0  0  0  0
    3.2543    7.2709   -4.6260 N   0  0  0  0  0  0  0  0  0  0  0  0
    4.0169    6.1627   -4.7376 C   0  0  0  0  0  0  0  0  0  0  0  0
    5.3256    6.2120   -4.3219 C   0  0  0  0  0  0  0  0  0  0  0  0
    5.8105    7.3921   -3.8068 C   0  0  0  0  0  0  0  0  0  0  0  0
    5.0464    8.5376   -3.6850 C   0  0  0  0  0  0  0  0  0  0  0  0
  1  2  1  0
  2  3  1  0
  2  4  1  0
  2  5  1  0
  5  6  1  1
  6  7  1  0
  7  8  2  0
  7  9  1  0
  9 10  1  0
  9 11  1  0
  9 12  1  0
  5 13  1  0
 13 14  2  0
 13 15  1  0
 15 16  1  0
 16 17  1  0
 17 18  1  0
 18 19  2  0
 19 20  1  0
 20 21  2  0
 21 22  1  0
 22 23  2  0
 23 15  1  0
 23 18  1  0
M  END
$$$$
