protein_ligand_0
     RDKit          3D

 22 23  0  0  0  0  0  0  0  0999 V2000
    2.8877   10.8164   -5.9595 C   0  0  0  0  0  0  0  0  0  0  0  0
    4.2659   11.1105   -5.5570 C   0  0  0  0  0  0  0  0  0  0  0  0
    5.2260   10.4896   -6.5682 C   0  0  0  0  0  0  0  0  0  0  0  0
    4.7225   10.8612   -4.2214 C   0  0  0  0  0  0  0  0  0  0  0  0
    4.4323    9.6340   -3.6779 N   0  0  0  0  0  0  0  0  0  0  0  0
    4.7558    9.2760   -2.4393 C   0  0  0  0  0  0  0  0  0  0  0  0
    4.4030    7.9599   -1.9666 N   0  0  0  0  0  0  0  0  0  0  0  0
    4.2001    6.8996   -2.8701 C   0  0  0  0  0  0  0  0  0  0  0  0
    4.2873    7.1213   -4.1000 O   0  0  0  0  0  0  0  0  0  0  0  0
    3.8842    5.5160   -2.4307 C   0  0  0  0  0  0  0  0  0  0  0  0
    3.7847    4.6615   -3.4848 F   0  0  0  0  0  0  0  0  0  0  0  0
    4.7957    5.0496   -1.5047 F   0  0  0  0  0  0  0  0  0  0  0  0
    2.6388    5.5411   -1.8039 F   0  0  0  0  0  0  0  0  0  0  0  0
    5.3983   10.1120   -1.6324 N   0  0  0  0  0  0  0  0  0  0  0  0
    5.7280   11.3300   -2.0644 C   0  0  0  0  0  0  0  0  0  0  0  0
    5.3827   11.7041   -3.3813 C   0  0  0  0  0  0  0  0  0  0  0  0
    5.8055   12.9919   -3.8261 C   0  0  0  0  0  0  0  0  0  0  0  0
    6.9756   13.1307   -4.5107 C   0  0  0  0  0  0  0  0  0  0  0  0
    7.3954   14.3426   -5.0025 C   0  0  0  0  0  0  0  0  0  0  0  0
    6.5888   15.4622   -4.7878 C   0  0  0  0  0  0  0  0  0  0  0  0
    5.4028   15.3516   -4.1007 C   0  0  0  0  0  0  0  0  0  0  0  0
    5.0343   14.1013   -3.6299 C   0  0  0  0  0  0  0  0  0  0  0  0
  1  2  1  0
  2  3  1  0
  2  4  1  0
  4  5  2  0
  5  6  1  0
  6  7  1  0
  7  8  1  0
  8  9  2  0
  8 10  1  0
 10 11  1  0
 10 12  1  0
 10 13  1  0
  6 14  2  0
 14 15  1  0
 15 16  2  0
 16 17  1  0
 17 18  2  0
 18 19  1  0
 19 20  2  0
 20 21  1  0
 21 22  2  0
 16  4  1  0
 22 17  1  0
M  END
$$$$
