protein_ligand_0
     RDKit          3D

 23 24  0  0  0  0  0  0  0  0999 V2000
    8.5611    8.0770   -5.5982 C   0  0  0  0  0  0  0  0  0  0  0  0
    7.4713    8.8025   -4.8647 C   0  0  0  0  0  0  0  0  0  0  0  0
    6.7105    9.5958   -5.9486 C   0  0  0  0  0  0  0  0  0  0  0  0
    8.0332    9.7932   -3.9318 C   0  0  0  0  0  0  0  0  0  0  0  0
    6.4245    7.8694   -4.2844 C   0  0  1  0  0  0  0  0  0  0  0  0
    5.3084    8.7344   -3.8091 N   0  0  0  0  0  0  0  0  0  0  0  0
    4.8868    8.6175   -2.4683 C   0  0  0  0  0  0  0  0  0  0  0  0
    5.4177    7.7780   -1.7183 O   0  0  0  0  0  0  0  0  0  0  0  0
    3.7980    9.5310   -2.0091 C   0  0  0  0  0  0  0  0  0  0  0  0
    4.1224   10.8504   -2.1970 F   0  0  0  0  0  0  0  0  0  0  0  0
    2.6458    9.2685   -2.7574 F   0  0  0  0  0  0  0  0  0  0  0  0
    3.5669    9.2879   -0.6614 F   0  0  0  0  0  0  0  0  0  0  0  0
    5.9284    6.8536   -5.1917 C   0  0  0  0  0  0  0  0  0  0  0  0
    5.0243    7.2731   -6.0288 O   0  0  0  0  0  0  0  0  0  0  0  0
    6.2388    5.5176   -5.3333 N   0  0  0  0  0  0  0  0  0  0  0  0
    7.2261    4.7652   -4.5164 C   0  0  0  0  0  0  0  0  0  0  0  0
    6.5479    3.3943   -4.3814 C   0  0  0  0  0  0  0  0  0  0  0  0
    5.8451    3.2639   -5.6832 C   0  0  0  0  0  0  0  0  0  0  0  0
    5.4127    2.1801   -6.3349 N   0  0  0  0  0  0  0  0  0  0  0  0
    4.8122    2.2537   -7.5417 C   0  0  0  0  0  0  0  0  0  0  0  0
    4.6381    3.4864   -8.1231 C   0  0  0  0  0  0  0  0  0  0  0  0
    5.0831    4.6018   -7.4515 C   0  0  0  0  0  0  0  0  0  0  0  0
    5.6992    4.5476   -6.2153 C   0  0  0  0  0  0  0  0  0  0  0  0
  1  2  1  0
  2  3  1  0
  2  4  1  0
  2  5  1  0
  5  6  1  6
  6  7  1  0
  7  8  2  0
  7  9  1  0
  9 10  1  0
  9 11  1  0
  9 12  1  0
  5 13  1  0
 13 14  2  0
 13 15  1  0
 15 16  1  0
 16 17  1  0
 17 18  1  0
 18 19  2  0
 19 20  1  0
 20 21  2  0
 21 22  1  0
 22 23  2  0
 23 15  1  0
 23 18  1  0
M  END
$$$$
