protein_ligand_0
     RDKit          3D

 23 24  0  0  0  0  0  0  0  0999 V2000
    8.7081    8.0197   -5.0402 C   0  0  0  0  0  0  0  0  0  0  0  0
    8.8397    9.1039   -4.0109 C   0  0  0  0  0  0  0  0  0  0  0  0
    8.9229   10.4192   -4.8148 C   0  0  0  0  0  0  0  0  0  0  0  0
   10.1074    8.9785   -3.2728 C   0  0  0  0  0  0  0  0  0  0  0  0
    7.5939    9.2675   -3.1598 C   0  0  1  0  0  0  0  0  0  0  0  0
    7.8228   10.4678   -2.3072 N   0  0  0  0  0  0  0  0  0  0  0  0
    7.7494   10.3253   -0.9060 C   0  0  0  0  0  0  0  0  0  0  0  0
    7.6120    9.1965   -0.4001 O   0  0  0  0  0  0  0  0  0  0  0  0
    7.8429   11.5688   -0.0839 C   0  0  0  0  0  0  0  0  0  0  0  0
    6.6083   12.0135    0.3154 F   0  0  0  0  0  0  0  0  0  0  0  0
    8.5850   11.2908    1.0686 F   0  0  0  0  0  0  0  0  0  0  0  0
    8.4743   12.5450   -0.8437 F   0  0  0  0  0  0  0  0  0  0  0  0
    6.3524    9.3975   -3.8965 C   0  0  0  0  0  0  0  0  0  0  0  0
    6.1983   10.5424   -4.4960 O   0  0  0  0  0  0  0  0  0  0  0  0
    5.2985    8.5277   -4.0814 N   0  0  0  0  0  0  0  0  0  0  0  0
    5.0902    7.2500   -3.3518 C   0  0  0  0  0  0  0  0  0  0  0  0
    3.5637    7.2230   -3.1878 C   0  0  0  0  0  0  0  0  0  0  0  0
    3.1038    7.8841   -4.4356 C   0  0  0  0  0  0  0  0  0  0  0  0
    1.9288    7.8260   -5.0700 N   0  0  0  0  0  0  0  0  0  0  0  0
    1.6989    8.4816   -6.2275 C   0  0  0  0  0  0  0  0  0  0  0  0
    2.7078    9.2363   -6.7754 C   0  0  0  0  0  0  0  0  0  0  0  0
    3.9171    9.2960   -6.1215 C   0  0  0  0  0  0  0  0  0  0  0  0
    4.1720    8.6333   -4.9356 C   0  0  0  0  0  0  0  0  0  0  0  0
  1  2  1  0
  2  3  1  0
  2  4  1  0
  2  5  1  0
  5  6  1  6
  6  7  1  0
  7  8  2  0
  7  9  1  0
  9 10  1  0
  9 11  1  0
  9 12  1  0
  5 13  1  0
 13 14  2  0
 13 15  1  0
 15 16  1  0
 16 17  1  0
 17 18  1  0
 18 19  2  0
 19 20  1  0
 20 21  2  0
 21 22  1  0
 22 23  2  0
 23 15  1  0
 23 18  1  0
M  END
$$$$
