protein_ligand_0
     RDKit          3D

 23 24  0  0  0  0  0  0  0  0999 V2000
    7.5978    9.6884   -4.9184 C   0  0  0  0  0  0  0  0  0  0  0  0
    7.6079   10.5357   -3.6798 C   0  0  0  0  0  0  0  0  0  0  0  0
    7.1454   11.9345   -4.1409 C   0  0  0  0  0  0  0  0  0  0  0  0
    8.9763   10.6928   -3.1600 C   0  0  0  0  0  0  0  0  0  0  0  0
    6.5609   10.1145   -2.6651 C   0  0  1  0  0  0  0  0  0  0  0  0
    6.5095   11.1960   -1.6416 N   0  0  0  0  0  0  0  0  0  0  0  0
    6.3274   10.8386   -0.2894 C   0  0  0  0  0  0  0  0  0  0  0  0
    6.3171    9.6392    0.0429 O   0  0  0  0  0  0  0  0  0  0  0  0
    6.1523   11.9474    0.6959 C   0  0  0  0  0  0  0  0  0  0  0  0
    4.9525   12.5921    0.5344 F   0  0  0  0  0  0  0  0  0  0  0  0
    6.1723   11.4088    1.9866 F   0  0  0  0  0  0  0  0  0  0  0  0
    7.1983   12.8457    0.5289 F   0  0  0  0  0  0  0  0  0  0  0  0
    5.2394    9.8640   -3.2054 C   0  0  0  0  0  0  0  0  0  0  0  0
    4.4383   10.8891   -3.1686 O   0  0  0  0  0  0  0  0  0  0  0  0
    4.6706    8.7344   -3.7548 N   0  0  0  0  0  0  0  0  0  0  0  0
    5.3409    7.4185   -3.9201 C   0  0  0  0  0  0  0  0  0  0  0  0
    4.1933    6.4392   -3.6343 C   0  0  0  0  0  0  0  0  0  0  0  0
    3.0180    7.1693   -4.1740 C   0  0  0  0  0  0  0  0  0  0  0  0
    1.8254    6.7219   -4.5788 N   0  0  0  0  0  0  0  0  0  0  0  0
    0.8761    7.5427   -5.0764 C   0  0  0  0  0  0  0  0  0  0  0  0
    1.1433    8.8871   -5.1713 C   0  0  0  0  0  0  0  0  0  0  0  0
    2.3712    9.3470   -4.7540 C   0  0  0  0  0  0  0  0  0  0  0  0
    3.3557    8.5234   -4.2410 C   0  0  0  0  0  0  0  0  0  0  0  0
  1  2  1  0
  2  3  1  0
  2  4  1  0
  2  5  1  0
  5  6  1  1
  6  7  1  0
  7  8  2  0
  7  9  1  0
  9 10  1  0
  9 11  1  0
  9 12  1  0
  5 13  1  0
 13 14  2  0
 13 15  1  0
 15 16  1  0
 16 17  1  0
 17 18  1  0
 18 19  2  0
 19 20  1  0
 20 21  2  0
 21 22  1  0
 22 23  2  0
 23 15  1  0
 23 18  1  0
M  END
$$$$
