protein_ligand_0
     RDKit          3D

 23 24  0  0  0  0  0  0  0  0999 V2000
    4.8800    6.7159   -7.2329 C   0  0  0  0  0  0  0  0  0  0  0  0
    4.7503    7.6845   -6.0939 C   0  0  0  0  0  0  0  0  0  0  0  0
    3.2340    7.9298   -5.9400 C   0  0  0  0  0  0  0  0  0  0  0  0
    5.3562    8.9824   -6.4344 C   0  0  0  0  0  0  0  0  0  0  0  0
    5.1673    7.0911   -4.7608 C   0  0  1  0  0  0  0  0  0  0  0  0
    4.7301    8.0586   -3.7156 N   0  0  0  0  0  0  0  0  0  0  0  0
    5.6774    8.5088   -2.7727 C   0  0  0  0  0  0  0  0  0  0  0  0
    6.8441    8.0765   -2.8055 O   0  0  0  0  0  0  0  0  0  0  0  0
    5.2175    9.5056   -1.7600 C   0  0  0  0  0  0  0  0  0  0  0  0
    6.1878    9.7756   -0.8289 F   0  0  0  0  0  0  0  0  0  0  0  0
    4.9146   10.7040   -2.4144 F   0  0  0  0  0  0  0  0  0  0  0  0
    4.0879    8.9969   -1.1321 F   0  0  0  0  0  0  0  0  0  0  0  0
    4.6435    5.7691   -4.4797 C   0  0  0  0  0  0  0  0  0  0  0  0
    3.4651    5.7620   -3.9272 O   0  0  0  0  0  0  0  0  0  0  0  0
    5.1652    4.5102   -4.6908 N   0  0  0  0  0  0  0  0  0  0  0  0
    6.4528    4.2073   -5.3680 C   0  0  0  0  0  0  0  0  0  0  0  0
    6.9662    3.0110   -4.5538 C   0  0  0  0  0  0  0  0  0  0  0  0
    5.7050    2.3159   -4.1907 C   0  0  0  0  0  0  0  0  0  0  0  0
    5.4806    1.0467   -3.8372 N   0  0  0  0  0  0  0  0  0  0  0  0
    4.2432    0.5791   -3.5677 C   0  0  0  0  0  0  0  0  0  0  0  0
    3.1741    1.4372   -3.6596 C   0  0  0  0  0  0  0  0  0  0  0  0
    3.4059    2.7439   -4.0232 C   0  0  0  0  0  0  0  0  0  0  0  0
    4.6647    3.2420   -4.3022 C   0  0  0  0  0  0  0  0  0  0  0  0
  1  2  1  0
  2  3  1  0
  2  4  1  0
  2  5  1  0
  5  6  1  1
  6  7  1  0
  7  8  2  0
  7  9  1  0
  9 10  1  0
  9 11  1  0
  9 12  1  0
  5 13  1  0
 13 14  2  0
 13 15  1  0
 15 16  1  0
 16 17  1  0
 17 18  1  0
 18 19  2  0
 19 20  1  0
 20 21  2  0
 21 22  1  0
 22 23  2  0
 23 15  1  0
 23 18  1  0
M  END
$$$$
