protein_ligand_0
     RDKit          3D

 22 23  0  0  0  0  0  0  0  0999 V2000
    4.9758   13.3749   -4.3075 C   0  0  0  0  0  0  0  0  0  0  0  0
    5.7402   12.4451   -3.4715 C   0  0  0  0  0  0  0  0  0  0  0  0
    6.9541   11.9507   -4.2538 C   0  0  0  0  0  0  0  0  0  0  0  0
    5.1041   11.3509   -2.7987 C   0  0  0  0  0  0  0  0  0  0  0  0
    4.7930   10.2463   -3.5528 N   0  0  0  0  0  0  0  0  0  0  0  0
    4.1676    9.1746   -3.0758 C   0  0  0  0  0  0  0  0  0  0  0  0
    3.8886    8.0665   -3.9555 N   0  0  0  0  0  0  0  0  0  0  0  0
    3.8490    6.7479   -3.4642 C   0  0  0  0  0  0  0  0  0  0  0  0
    4.1490    6.5340   -2.2668 O   0  0  0  0  0  0  0  0  0  0  0  0
    3.4645    5.5857   -4.3059 C   0  0  0  0  0  0  0  0  0  0  0  0
    2.9404    5.9772   -5.4988 F   0  0  0  0  0  0  0  0  0  0  0  0
    4.5197    4.7158   -4.4948 F   0  0  0  0  0  0  0  0  0  0  0  0
    2.4678    4.8812   -3.6313 F   0  0  0  0  0  0  0  0  0  0  0  0
    3.7969    9.1105   -1.8025 N   0  0  0  0  0  0  0  0  0  0  0  0
    4.0532   10.1319   -0.9841 C   0  0  0  0  0  0  0  0  0  0  0  0
    4.7187   11.2669   -1.4962 C   0  0  0  0  0  0  0  0  0  0  0  0
    5.0282   12.3124   -0.5764 C   0  0  0  0  0  0  0  0  0  0  0  0
    6.3234   12.5642   -0.2353 C   0  0  0  0  0  0  0  0  0  0  0  0
    6.6709   13.5934    0.6055 C   0  0  0  0  0  0  0  0  0  0  0  0
    5.6556   14.4015    1.1216 C   0  0  0  0  0  0  0  0  0  0  0  0
    4.3401   14.1708    0.7943 C   0  0  0  0  0  0  0  0  0  0  0  0
    4.0540   13.1171   -0.0592 C   0  0  0  0  0  0  0  0  0  0  0  0
  1  2  1  0
  2  3  1  0
  2  4  1  0
  4  5  2  0
  5  6  1  0
  6  7  1  0
  7  8  1  0
  8  9  2  0
  8 10  1  0
 10 11  1  0
 10 12  1  0
 10 13  1  0
  6 14  2  0
 14 15  1  0
 15 16  2  0
 16 17  1  0
 17 18  2  0
 18 19  1  0
 19 20  2  0
 20 21  1  0
 21 22  2  0
 16  4  1  0
 22 17  1  0
M  END
$$$$
