protein_ligand_0
     RDKit          3D

 22 23  0  0  0  0  0  0  0  0999 V2000
    4.1389   10.7205    1.5310 C   0  0  0  0  0  0  0  0  0  0  0  0
    3.6825   11.5962    0.4481 C   0  0  0  0  0  0  0  0  0  0  0  0
    2.1585   11.5497    0.3754 C   0  0  0  0  0  0  0  0  0  0  0  0
    4.2448   11.5111   -0.8676 C   0  0  0  0  0  0  0  0  0  0  0  0
    4.2125   10.2853   -1.4856 N   0  0  0  0  0  0  0  0  0  0  0  0
    4.7300   10.0461   -2.6864 C   0  0  0  0  0  0  0  0  0  0  0  0
    4.6415    8.7195   -3.2452 N   0  0  0  0  0  0  0  0  0  0  0  0
    3.8984    7.7132   -2.5996 C   0  0  0  0  0  0  0  0  0  0  0  0
    3.3238    7.9781   -1.5184 O   0  0  0  0  0  0  0  0  0  0  0  0
    3.7613    6.3379   -3.1444 C   0  0  0  0  0  0  0  0  0  0  0  0
    4.9726    5.7610   -3.3707 F   0  0  0  0  0  0  0  0  0  0  0  0
    2.9806    5.5387   -2.3334 F   0  0  0  0  0  0  0  0  0  0  0  0
    3.1138    6.4292   -4.3761 F   0  0  0  0  0  0  0  0  0  0  0  0
    5.3264   11.0102   -3.3775 N   0  0  0  0  0  0  0  0  0  0  0  0
    5.4103   12.2392   -2.8663 C   0  0  0  0  0  0  0  0  0  0  0  0
    4.8578   12.4874   -1.5909 C   0  0  0  0  0  0  0  0  0  0  0  0
    4.9141   13.8273   -1.1047 C   0  0  0  0  0  0  0  0  0  0  0  0
    4.0243   14.7572   -1.5528 C   0  0  0  0  0  0  0  0  0  0  0  0
    4.0089   16.0445   -1.0738 C   0  0  0  0  0  0  0  0  0  0  0  0
    4.9400   16.4007   -0.0959 C   0  0  0  0  0  0  0  0  0  0  0  0
    5.8494   15.4831    0.3750 C   0  0  0  0  0  0  0  0  0  0  0  0
    5.8139   14.2001   -0.1479 C   0  0  0  0  0  0  0  0  0  0  0  0
  1  2  1  0
  2  3  1  0
  2  4  1  0
  4  5  2  0
  5  6  1  0
  6  7  1  0
  7  8  1  0
  8  9  2  0
  8 10  1  0
 10 11  1  0
 10 12  1  0
 10 13  1  0
  6 14  2  0
 14 15  1  0
 15 16  2  0
 16 17  1  0
 17 18  2  0
 18 19  1  0
 19 20  2  0
 20 21  1  0
 21 22  2  0
 16  4  1  0
 22 17  1  0
M  END
$$$$
