protein_ligand_0
     RDKit          3D

 22 23  0  0  0  0  0  0  0  0999 V2000
    5.1285   11.0840   -0.0044 C   0  0  0  0  0  0  0  0  0  0  0  0
    5.5141   11.4049   -1.3815 C   0  0  0  0  0  0  0  0  0  0  0  0
    4.3518   12.1100   -2.0754 C   0  0  0  0  0  0  0  0  0  0  0  0
    6.0816   10.4138   -2.2477 C   0  0  0  0  0  0  0  0  0  0  0  0
    5.2210    9.4991   -2.8030 N   0  0  0  0  0  0  0  0  0  0  0  0
    5.6071    8.5011   -3.5918 C   0  0  0  0  0  0  0  0  0  0  0  0
    4.6192    7.5949   -4.1235 N   0  0  0  0  0  0  0  0  0  0  0  0
    3.3307    7.5220   -3.5614 C   0  0  0  0  0  0  0  0  0  0  0  0
    3.0470    8.2592   -2.5891 O   0  0  0  0  0  0  0  0  0  0  0  0
    2.2802    6.6033   -4.0709 C   0  0  0  0  0  0  0  0  0  0  0  0
    1.1557    6.6482   -3.3064 F   0  0  0  0  0  0  0  0  0  0  0  0
    1.9828    6.8468   -5.3968 F   0  0  0  0  0  0  0  0  0  0  0  0
    2.7770    5.3025   -3.9940 F   0  0  0  0  0  0  0  0  0  0  0  0
    6.8877    8.3275   -3.8964 N   0  0  0  0  0  0  0  0  0  0  0  0
    7.8054    9.1631   -3.4084 C   0  0  0  0  0  0  0  0  0  0  0  0
    7.3892   10.2218   -2.5721 C   0  0  0  0  0  0  0  0  0  0  0  0
    8.3926   11.1291   -2.1193 C   0  0  0  0  0  0  0  0  0  0  0  0
    8.7231   12.2166   -2.8711 C   0  0  0  0  0  0  0  0  0  0  0  0
    9.6454   13.1434   -2.4499 C   0  0  0  0  0  0  0  0  0  0  0  0
   10.2578   12.9548   -1.2091 C   0  0  0  0  0  0  0  0  0  0  0  0
    9.9435   11.8668   -0.4292 C   0  0  0  0  0  0  0  0  0  0  0  0
    9.0048   10.9675   -0.9097 C   0  0  0  0  0  0  0  0  0  0  0  0
  1  2  1  0
  2  3  1  0
  2  4  1  0
  4  5  2  0
  5  6  1  0
  6  7  1  0
  7  8  1  0
  8  9  2  0
  8 10  1  0
 10 11  1  0
 10 12  1  0
 10 13  1  0
  6 14  2  0
 14 15  1  0
 15 16  2  0
 16 17  1  0
 17 18  2  0
 18 19  1  0
 19 20  2  0
 20 21  1  0
 21 22  2  0
 16  4  1  0
 22 17  1  0
M  END
$$$$
