protein_ligand_0
     RDKit          3D

 23 24  0  0  0  0  0  0  0  0999 V2000
    6.4396   10.5688   -4.5948 C   0  0  0  0  0  0  0  0  0  0  0  0
    5.8708    9.5411   -3.6606 C   0  0  0  0  0  0  0  0  0  0  0  0
    4.7281   10.2604   -2.9125 C   0  0  0  0  0  0  0  0  0  0  0  0
    6.8605    9.1482   -2.6439 C   0  0  0  0  0  0  0  0  0  0  0  0
    5.1800    8.4001   -4.3845 C   0  0  1  0  0  0  0  0  0  0  0  0
    3.9857    8.9889   -5.0529 N   0  0  0  0  0  0  0  0  0  0  0  0
    2.9344    8.1308   -5.4367 C   0  0  0  0  0  0  0  0  0  0  0  0
    2.9303    6.9435   -5.0633 O   0  0  0  0  0  0  0  0  0  0  0  0
    1.8549    8.7081   -6.2925 C   0  0  0  0  0  0  0  0  0  0  0  0
    1.1881    9.7260   -5.6596 F   0  0  0  0  0  0  0  0  0  0  0  0
    2.4342    9.2380   -7.4501 F   0  0  0  0  0  0  0  0  0  0  0  0
    0.9670    7.6905   -6.6166 F   0  0  0  0  0  0  0  0  0  0  0  0
    5.9998    7.6885   -5.3450 C   0  0  0  0  0  0  0  0  0  0  0  0
    6.4628    8.4274   -6.3112 O   0  0  0  0  0  0  0  0  0  0  0  0
    6.3828    6.3663   -5.4249 N   0  0  0  0  0  0  0  0  0  0  0  0
    7.3585    5.8029   -6.3939 C   0  0  0  0  0  0  0  0  0  0  0  0
    8.0801    4.7489   -5.5418 C   0  0  0  0  0  0  0  0  0  0  0  0
    6.9943    4.2742   -4.6466 C   0  0  0  0  0  0  0  0  0  0  0  0
    6.8645    3.1319   -3.9649 N   0  0  0  0  0  0  0  0  0  0  0  0
    5.7764    2.8575   -3.2144 C   0  0  0  0  0  0  0  0  0  0  0  0
    4.7644    3.7844   -3.1476 C   0  0  0  0  0  0  0  0  0  0  0  0
    4.8989    4.9603   -3.8494 C   0  0  0  0  0  0  0  0  0  0  0  0
    6.0049    5.2604   -4.6223 C   0  0  0  0  0  0  0  0  0  0  0  0
  1  2  1  0
  2  3  1  0
  2  4  1  0
  2  5  1  0
  5  6  1  6
  6  7  1  0
  7  8  2  0
  7  9  1  0
  9 10  1  0
  9 11  1  0
  9 12  1  0
  5 13  1  0
 13 14  2  0
 13 15  1  0
 15 16  1  0
 16 17  1  0
 17 18  1  0
 18 19  2  0
 19 20  1  0
 20 21  2  0
 21 22  1  0
 22 23  2  0
 23 15  1  0
 23 18  1  0
M  END
$$$$
