protein_ligand_0
     RDKit          3D

 22 23  0  0  0  0  0  0  0  0999 V2000
    3.6681   11.0166    2.1732 C   0  0  0  0  0  0  0  0  0  0  0  0
    3.3048   11.7949    0.9856 C   0  0  0  0  0  0  0  0  0  0  0  0
    1.7961   11.7064    0.7714 C   0  0  0  0  0  0  0  0  0  0  0  0
    3.9938   11.6219   -0.2593 C   0  0  0  0  0  0  0  0  0  0  0  0
    3.8462   10.4139   -0.8954 N   0  0  0  0  0  0  0  0  0  0  0  0
    4.4547   10.0957   -2.0337 C   0  0  0  0  0  0  0  0  0  0  0  0
    4.2300    8.7968   -2.6187 N   0  0  0  0  0  0  0  0  0  0  0  0
    3.0499    8.0785   -2.3484 C   0  0  0  0  0  0  0  0  0  0  0  0
    2.2509    8.5192   -1.4900 O   0  0  0  0  0  0  0  0  0  0  0  0
    2.7028    6.8099   -3.0392 C   0  0  0  0  0  0  0  0  0  0  0  0
    1.5649    6.2570   -2.5385 F   0  0  0  0  0  0  0  0  0  0  0  0
    2.6069    6.9779   -4.4061 F   0  0  0  0  0  0  0  0  0  0  0  0
    3.7359    5.9020   -2.8089 F   0  0  0  0  0  0  0  0  0  0  0  0
    5.2652   10.9559   -2.6385 N   0  0  0  0  0  0  0  0  0  0  0  0
    5.4760   12.1589   -2.1026 C   0  0  0  0  0  0  0  0  0  0  0  0
    4.8261   12.4915   -0.8942 C   0  0  0  0  0  0  0  0  0  0  0  0
    5.0295   13.8083   -0.3846 C   0  0  0  0  0  0  0  0  0  0  0  0
    4.1053   14.7829   -0.6151 C   0  0  0  0  0  0  0  0  0  0  0  0
    4.2350   16.0497   -0.1000 C   0  0  0  0  0  0  0  0  0  0  0  0
    5.3545   16.3368    0.6839 C   0  0  0  0  0  0  0  0  0  0  0  0
    6.3028   15.3729    0.9332 C   0  0  0  0  0  0  0  0  0  0  0  0
    6.1148   14.1138    0.3855 C   0  0  0  0  0  0  0  0  0  0  0  0
  1  2  1  0
  2  3  1  0
  2  4  1  0
  4  5  2  0
  5  6  1  0
  6  7  1  0
  7  8  1  0
  8  9  2  0
  8 10  1  0
 10 11  1  0
 10 12  1  0
 10 13  1  0
  6 14  2  0
 14 15  1  0
 15 16  2  0
 16 17  1  0
 17 18  2  0
 18 19  1  0
 19 20  2  0
 20 21  1  0
 21 22  2  0
 16  4  1  0
 22 17  1  0
M  END
$$$$
