protein_ligand_4
     RDKit          3D

 23 24  0  0  0  0  0  0  0  0999 V2000
    5.4261    1.9572   -3.8349 C   0  0  0  0  0  0  0  0  0  0  0  0
    4.0947    1.7920   -4.5475 C   0  0  0  0  0  0  0  0  0  0  0  0
    4.3065    0.8396   -5.7098 C   0  0  0  0  0  0  0  0  0  0  0  0
    3.7319    3.1222   -5.1211 C   0  0  0  0  0  0  0  0  0  0  0  0
    3.1387    3.1498   -6.2116 O   0  0  0  0  0  0  0  0  0  0  0  0
    4.0549    4.2427   -4.4464 O   0  0  0  0  0  0  0  0  0  0  0  0
    4.7966    5.3100   -4.8665 C   0  0  0  0  0  0  0  0  0  0  0  0
    4.3764    6.6744   -4.3696 C   0  0  2  0  0  0  0  0  0  0  0  0
    4.7025    7.6386   -5.3087 O   0  0  0  0  0  0  0  0  0  0  0  0
    4.9583    6.9057   -3.0092 C   0  0  0  0  0  0  0  0  0  0  0  0
    5.1152    8.2761   -2.6522 N   0  0  0  0  0  0  0  0  0  0  0  0
    4.0772    9.0527   -2.2348 C   0  0  0  0  0  0  0  0  0  0  0  0
    4.2454   10.3727   -1.8793 C   0  0  0  0  0  0  0  0  0  0  0  0
    5.4997   10.9550   -1.9390 C   0  0  0  0  0  0  0  0  0  0  0  0
    5.7129   12.3481   -1.5705 C   0  0  0  0  0  0  0  0  0  0  0  0
    5.1543   12.9094   -0.4378 C   0  0  0  0  0  0  0  0  0  0  0  0
    5.3700   14.2416   -0.1031 C   0  0  0  0  0  0  0  0  0  0  0  0
    6.1534   15.0562   -0.8936 C   0  0  0  0  0  0  0  0  0  0  0  0
    6.7112   14.4973   -2.0241 C   0  0  0  0  0  0  0  0  0  0  0  0
    6.4941   13.1738   -2.3521 C   0  0  0  0  0  0  0  0  0  0  0  0
    6.5156   10.1343   -2.3659 C   0  0  0  0  0  0  0  0  0  0  0  0
    6.3569    8.8239   -2.7206 C   0  0  0  0  0  0  0  0  0  0  0  0
    7.3371    8.1127   -3.1122 O   0  0  0  0  0  0  0  0  0  0  0  0
  1  2  1  0
  2  3  1  0
  2  4  1  0
  4  5  2  0
  4  6  1  0
  6  7  1  0
  7  8  1  0
  8  9  1  6
  8 10  1  0
 10 11  1  0
 11 12  1  0
 12 13  2  0
 13 14  1  0
 14 15  1  0
 15 16  2  0
 16 17  1  0
 17 18  2  0
 18 19  1  0
 19 20  2  0
 14 21  2  0
 21 22  1  0
 22 23  2  0
 22 11  1  0
 20 15  1  0
M  END
$$$$
