protein_ligand_4
     RDKit          3D

 23 24  0  0  0  0  0  0  0  0999 V2000
    5.1320    1.9824   -6.2335 C   0  0  0  0  0  0  0  0  0  0  0  0
    4.9131    3.4768   -6.3963 C   0  0  0  0  0  0  0  0  0  0  0  0
    5.8706    4.1901   -5.4597 C   0  0  0  0  0  0  0  0  0  0  0  0
    3.5265    3.7743   -5.9283 C   0  0  0  0  0  0  0  0  0  0  0  0
    2.5780    3.2351   -6.5211 O   0  0  0  0  0  0  0  0  0  0  0  0
    3.3459    4.6101   -4.8873 O   0  0  0  0  0  0  0  0  0  0  0  0
    2.4923    5.6711   -4.7806 C   0  0  0  0  0  0  0  0  0  0  0  0
    3.0638    6.9575   -4.2295 C   0  0  2  0  0  0  0  0  0  0  0  0
    2.1303    7.9741   -4.3424 O   0  0  0  0  0  0  0  0  0  0  0  0
    4.3768    7.2389   -4.8927 C   0  0  0  0  0  0  0  0  0  0  0  0
    5.0565    8.3925   -4.4054 N   0  0  0  0  0  0  0  0  0  0  0  0
    5.0985    9.5682   -5.0915 C   0  0  0  0  0  0  0  0  0  0  0  0
    5.7477   10.6801   -4.6025 C   0  0  0  0  0  0  0  0  0  0  0  0
    6.3872   10.6291   -3.3759 C   0  0  0  0  0  0  0  0  0  0  0  0
    7.0832   11.7862   -2.8292 C   0  0  0  0  0  0  0  0  0  0  0  0
    7.6359   12.7665   -3.6315 C   0  0  0  0  0  0  0  0  0  0  0  0
    8.2963   13.8637   -3.0901 C   0  0  0  0  0  0  0  0  0  0  0  0
    8.4248   14.0150   -1.7253 C   0  0  0  0  0  0  0  0  0  0  0  0
    7.8737   13.0375   -0.9238 C   0  0  0  0  0  0  0  0  0  0  0  0
    7.2188   11.9497   -1.4662 C   0  0  0  0  0  0  0  0  0  0  0  0
    6.3192    9.4234   -2.7205 C   0  0  0  0  0  0  0  0  0  0  0  0
    5.6773    8.3157   -3.1990 C   0  0  0  0  0  0  0  0  0  0  0  0
    5.6507    7.2231   -2.5468 O   0  0  0  0  0  0  0  0  0  0  0  0
  1  2  1  0
  2  3  1  0
  2  4  1  0
  4  5  2  0
  4  6  1  0
  6  7  1  0
  7  8  1  0
  8  9  1  6
  8 10  1  0
 10 11  1  0
 11 12  1  0
 12 13  2  0
 13 14  1  0
 14 15  1  0
 15 16  2  0
 16 17  1  0
 17 18  2  0
 18 19  1  0
 19 20  2  0
 14 21  2  0
 21 22  1  0
 22 23  2  0
 22 11  1  0
 20 15  1  0
M  END
$$$$
