protein_ligand_4
     RDKit          3D

 23 24  0  0  0  0  0  0  0  0999 V2000
    4.2218    0.1708   -2.5544 C   0  0  0  0  0  0  0  0  0  0  0  0
    4.1873    1.6725   -2.3275 C   0  0  0  0  0  0  0  0  0  0  0  0
    2.8211    2.0252   -1.7689 C   0  0  0  0  0  0  0  0  0  0  0  0
    4.3041    2.3249   -3.6657 C   0  0  0  0  0  0  0  0  0  0  0  0
    5.1173    1.8562   -4.4788 O   0  0  0  0  0  0  0  0  0  0  0  0
    3.5324    3.3918   -3.9500 O   0  0  0  0  0  0  0  0  0  0  0  0
    3.5504    4.6352   -3.3848 C   0  0  0  0  0  0  0  0  0  0  0  0
    4.4610    5.6624   -4.0179 C   0  0  2  0  0  0  0  0  0  0  0  0
    4.4485    6.8277   -3.2698 O   0  0  0  0  0  0  0  0  0  0  0  0
    4.0818    5.8394   -5.4559 C   0  0  0  0  0  0  0  0  0  0  0  0
    4.9020    6.7508   -6.1817 N   0  0  0  0  0  0  0  0  0  0  0  0
    6.1479    6.4277   -6.6269 C   0  0  0  0  0  0  0  0  0  0  0  0
    6.9249    7.3139   -7.3395 C   0  0  0  0  0  0  0  0  0  0  0  0
    6.4490    8.5816   -7.6267 C   0  0  0  0  0  0  0  0  0  0  0  0
    7.2444    9.5434   -8.3779 C   0  0  0  0  0  0  0  0  0  0  0  0
    8.6256    9.5030   -8.4053 C   0  0  0  0  0  0  0  0  0  0  0  0
    9.3669   10.4305   -9.1288 C   0  0  0  0  0  0  0  0  0  0  0  0
    8.7478   11.4302   -9.8495 C   0  0  0  0  0  0  0  0  0  0  0  0
    7.3698   11.4716   -9.8229 C   0  0  0  0  0  0  0  0  0  0  0  0
    6.6380   10.5482   -9.1029 C   0  0  0  0  0  0  0  0  0  0  0  0
    5.1887    8.8631   -7.1575 C   0  0  0  0  0  0  0  0  0  0  0  0
    4.4116    7.9895   -6.4496 C   0  0  0  0  0  0  0  0  0  0  0  0
    3.2505    8.3086   -6.0374 O   0  0  0  0  0  0  0  0  0  0  0  0
  1  2  1  0
  2  3  1  0
  2  4  1  0
  4  5  2  0
  4  6  1  0
  6  7  1  0
  7  8  1  0
  8  9  1  1
  8 10  1  0
 10 11  1  0
 11 12  1  0
 12 13  2  0
 13 14  1  0
 14 15  1  0
 15 16  2  0
 16 17  1  0
 17 18  2  0
 18 19  1  0
 19 20  2  0
 14 21  2  0
 21 22  1  0
 22 23  2  0
 22 11  1  0
 20 15  1  0
M  END
$$$$
