protein_ligand_4
     RDKit          3D

 23 24  0  0  0  0  0  0  0  0999 V2000
    0.8525    7.3348   -6.9073 C   0  0  0  0  0  0  0  0  0  0  0  0
    0.8225    6.3859   -5.7214 C   0  0  0  0  0  0  0  0  0  0  0  0
    0.1575    7.1099   -4.5654 C   0  0  0  0  0  0  0  0  0  0  0  0
    2.2393    6.1243   -5.3283 C   0  0  0  0  0  0  0  0  0  0  0  0
    2.5779    4.9523   -5.0964 O   0  0  0  0  0  0  0  0  0  0  0  0
    3.1007    7.1561   -5.2373 O   0  0  0  0  0  0  0  0  0  0  0  0
    4.2845    7.3421   -5.8930 C   0  0  0  0  0  0  0  0  0  0  0  0
    4.9947    8.6568   -5.6650 C   0  0  2  0  0  0  0  0  0  0  0  0
    4.9174    9.4380   -6.8059 O   0  0  0  0  0  0  0  0  0  0  0  0
    6.3878    8.3892   -5.1847 C   0  0  0  0  0  0  0  0  0  0  0  0
    6.8445    9.2664   -4.1591 N   0  0  0  0  0  0  0  0  0  0  0  0
    7.4629   10.4508   -4.4232 C   0  0  0  0  0  0  0  0  0  0  0  0
    7.8872   11.2960   -3.4219 C   0  0  0  0  0  0  0  0  0  0  0  0
    7.6918   10.9555   -2.0946 C   0  0  0  0  0  0  0  0  0  0  0  0
    8.1281   11.8260   -1.0111 C   0  0  0  0  0  0  0  0  0  0  0  0
    7.4218   11.9506    0.1703 C   0  0  0  0  0  0  0  0  0  0  0  0
    7.8551   12.7869    1.1930 C   0  0  0  0  0  0  0  0  0  0  0  0
    9.0120   13.5269    1.0654 C   0  0  0  0  0  0  0  0  0  0  0  0
    9.7176   13.4034   -0.1129 C   0  0  0  0  0  0  0  0  0  0  0  0
    9.2831   12.5714   -1.1256 C   0  0  0  0  0  0  0  0  0  0  0  0
    7.0651    9.7524   -1.8762 C   0  0  0  0  0  0  0  0  0  0  0  0
    6.6414    8.9082   -2.8640 C   0  0  0  0  0  0  0  0  0  0  0  0
    6.0683    7.8029   -2.6001 O   0  0  0  0  0  0  0  0  0  0  0  0
  1  2  1  0
  2  3  1  0
  2  4  1  0
  4  5  2  0
  4  6  1  0
  6  7  1  0
  7  8  1  0
  8  9  1  6
  8 10  1  0
 10 11  1  0
 11 12  1  0
 12 13  2  0
 13 14  1  0
 14 15  1  0
 15 16  2  0
 16 17  1  0
 17 18  2  0
 18 19  1  0
 19 20  2  0
 14 21  2  0
 21 22  1  0
 22 23  2  0
 22 11  1  0
 20 15  1  0
M  END
$$$$
