protein_ligand_4
     RDKit          3D

 23 24  0  0  0  0  0  0  0  0999 V2000
    3.5210    3.9974   -8.5187 C   0  0  0  0  0  0  0  0  0  0  0  0
    4.7431    3.7691   -7.6458 C   0  0  0  0  0  0  0  0  0  0  0  0
    5.2173    2.3460   -7.8757 C   0  0  0  0  0  0  0  0  0  0  0  0
    4.2957    3.8662   -6.2243 C   0  0  0  0  0  0  0  0  0  0  0  0
    4.1310    2.8133   -5.5870 O   0  0  0  0  0  0  0  0  0  0  0  0
    4.0856    5.0803   -5.6795 O   0  0  0  0  0  0  0  0  0  0  0  0
    2.9177    5.6228   -5.2242 C   0  0  0  0  0  0  0  0  0  0  0  0
    3.0298    6.8169   -4.3041 C   0  0  2  0  0  0  0  0  0  0  0  0
    1.8419    7.5288   -4.3094 O   0  0  0  0  0  0  0  0  0  0  0  0
    4.2391    7.6172   -4.6782 C   0  0  0  0  0  0  0  0  0  0  0  0
    4.4463    8.7881   -3.8932 N   0  0  0  0  0  0  0  0  0  0  0  0
    4.2131   10.0437   -4.3663 C   0  0  0  0  0  0  0  0  0  0  0  0
    4.4046   11.1666   -3.5920 C   0  0  0  0  0  0  0  0  0  0  0  0
    4.8483   11.0442   -2.2866 C   0  0  0  0  0  0  0  0  0  0  0  0
    5.0613   12.2106   -1.4402 C   0  0  0  0  0  0  0  0  0  0  0  0
    5.0295   12.1413   -0.0602 C   0  0  0  0  0  0  0  0  0  0  0  0
    5.2355   13.2664    0.7302 C   0  0  0  0  0  0  0  0  0  0  0  0
    5.4804   14.4996    0.1632 C   0  0  0  0  0  0  0  0  0  0  0  0
    5.5123   14.5699   -1.2136 C   0  0  0  0  0  0  0  0  0  0  0  0
    5.3071   13.4497   -1.9943 C   0  0  0  0  0  0  0  0  0  0  0  0
    5.0707    9.7595   -1.8530 C   0  0  0  0  0  0  0  0  0  0  0  0
    4.8834    8.6404   -2.6150 C   0  0  0  0  0  0  0  0  0  0  0  0
    5.1096    7.4740   -2.1587 O   0  0  0  0  0  0  0  0  0  0  0  0
  1  2  1  0
  2  3  1  0
  2  4  1  0
  4  5  2  0
  4  6  1  0
  6  7  1  0
  7  8  1  0
  8  9  1  6
  8 10  1  0
 10 11  1  0
 11 12  1  0
 12 13  2  0
 13 14  1  0
 14 15  1  0
 15 16  2  0
 16 17  1  0
 17 18  2  0
 18 19  1  0
 19 20  2  0
 14 21  2  0
 21 22  1  0
 22 23  2  0
 22 11  1  0
 20 15  1  0
M  END
$$$$
