protein_ligand_4
     RDKit          3D

 23 24  0  0  0  0  0  0  0  0999 V2000
    7.7127    5.8032   -6.3031 C   0  0  0  0  0  0  0  0  0  0  0  0
    6.3092    5.2220   -6.2981 C   0  0  0  0  0  0  0  0  0  0  0  0
    5.9463    4.8749   -7.7301 C   0  0  0  0  0  0  0  0  0  0  0  0
    5.3832    6.3060   -5.8534 C   0  0  0  0  0  0  0  0  0  0  0  0
    5.0807    7.1917   -6.6694 O   0  0  0  0  0  0  0  0  0  0  0  0
    4.9074    6.2925   -4.5931 O   0  0  0  0  0  0  0  0  0  0  0  0
    5.4700    6.8097   -3.4610 C   0  0  0  0  0  0  0  0  0  0  0  0
    4.9163    8.1239   -2.9596 C   0  0  2  0  0  0  0  0  0  0  0  0
    3.6197    8.2933   -3.4156 O   0  0  0  0  0  0  0  0  0  0  0  0
    5.8572    9.2293   -3.3280 C   0  0  0  0  0  0  0  0  0  0  0  0
    5.6854   10.4322   -2.5841 N   0  0  0  0  0  0  0  0  0  0  0  0
    5.4327   11.6338   -3.1733 C   0  0  0  0  0  0  0  0  0  0  0  0
    5.2550   12.7868   -2.4413 C   0  0  0  0  0  0  0  0  0  0  0  0
    5.3306   12.7523   -1.0596 C   0  0  0  0  0  0  0  0  0  0  0  0
    5.1478   13.9528   -0.2549 C   0  0  0  0  0  0  0  0  0  0  0  0
    4.5743   13.9228    1.0022 C   0  0  0  0  0  0  0  0  0  0  0  0
    4.4087   15.0801    1.7549 C   0  0  0  0  0  0  0  0  0  0  0  0
    4.8128   16.3071    1.2719 C   0  0  0  0  0  0  0  0  0  0  0  0
    5.3850   16.3384    0.0177 C   0  0  0  0  0  0  0  0  0  0  0  0
    5.5473   15.1863   -0.7259 C   0  0  0  0  0  0  0  0  0  0  0  0
    5.5877   11.5198   -0.5095 C   0  0  0  0  0  0  0  0  0  0  0  0
    5.7655   10.3713   -1.2289 C   0  0  0  0  0  0  0  0  0  0  0  0
    6.0046    9.2568   -0.6628 O   0  0  0  0  0  0  0  0  0  0  0  0
  1  2  1  0
  2  3  1  0
  2  4  1  0
  4  5  2  0
  4  6  1  0
  6  7  1  0
  7  8  1  0
  8  9  1  6
  8 10  1  0
 10 11  1  0
 11 12  1  0
 12 13  2  0
 13 14  1  0
 14 15  1  0
 15 16  2  0
 16 17  1  0
 17 18  2  0
 18 19  1  0
 19 20  2  0
 14 21  2  0
 21 22  1  0
 22 23  2  0
 22 11  1  0
 20 15  1  0
M  END
$$$$
