protein_ligand_4
     RDKit          3D

 23 24  0  0  0  0  0  0  0  0999 V2000
    2.3348    6.6360   -7.9578 C   0  0  0  0  0  0  0  0  0  0  0  0
    1.2164    5.7166   -7.4978 C   0  0  0  0  0  0  0  0  0  0  0  0
   -0.0413    6.1027   -8.2541 C   0  0  0  0  0  0  0  0  0  0  0  0
    0.9738    6.0039   -6.0525 C   0  0  0  0  0  0  0  0  0  0  0  0
   -0.0462    5.5336   -5.5232 O   0  0  0  0  0  0  0  0  0  0  0  0
    1.8590    6.7570   -5.3712 O   0  0  0  0  0  0  0  0  0  0  0  0
    2.4506    6.5017   -4.1667 C   0  0  0  0  0  0  0  0  0  0  0  0
    3.8135    7.1112   -3.9300 C   0  0  2  0  0  0  0  0  0  0  0  0
    4.2618    6.7840   -2.6612 O   0  0  0  0  0  0  0  0  0  0  0  0
    3.7532    8.5809   -4.2112 C   0  0  0  0  0  0  0  0  0  0  0  0
    4.9951    9.2661   -4.0758 N   0  0  0  0  0  0  0  0  0  0  0  0
    5.3261    9.9794   -2.9638 C   0  0  0  0  0  0  0  0  0  0  0  0
    6.5361   10.6257   -2.8403 C   0  0  0  0  0  0  0  0  0  0  0  0
    7.4650   10.5652   -3.8647 C   0  0  0  0  0  0  0  0  0  0  0  0
    8.7539   11.2370   -3.7670 C   0  0  0  0  0  0  0  0  0  0  0  0
    9.4174   11.3973   -2.5652 C   0  0  0  0  0  0  0  0  0  0  0  0
   10.6475   12.0416   -2.4929 C   0  0  0  0  0  0  0  0  0  0  0  0
   11.2538   12.5470   -3.6238 C   0  0  0  0  0  0  0  0  0  0  0  0
   10.5928   12.3877   -4.8234 C   0  0  0  0  0  0  0  0  0  0  0  0
    9.3713   11.7471   -4.8901 C   0  0  0  0  0  0  0  0  0  0  0  0
    7.0877    9.8356   -4.9661 C   0  0  0  0  0  0  0  0  0  0  0  0
    5.8892    9.1917   -5.0964 C   0  0  0  0  0  0  0  0  0  0  0  0
    5.5938    8.5322   -6.1441 O   0  0  0  0  0  0  0  0  0  0  0  0
  1  2  1  0
  2  3  1  0
  2  4  1  0
  4  5  2  0
  4  6  1  0
  6  7  1  0
  7  8  1  0
  8  9  1  1
  8 10  1  0
 10 11  1  0
 11 12  1  0
 12 13  2  0
 13 14  1  0
 14 15  1  0
 15 16  2  0
 16 17  1  0
 17 18  2  0
 18 19  1  0
 19 20  2  0
 14 21  2  0
 21 22  1  0
 22 23  2  0
 22 11  1  0
 20 15  1  0
M  END
$$$$
