protein_ligand_4
     RDKit          3D

 23 24  0  0  0  0  0  0  0  0999 V2000
    3.8088   13.0344    1.2573 C   0  0  0  0  0  0  0  0  0  0  0  0
    4.1681   11.5637    1.1328 C   0  0  0  0  0  0  0  0  0  0  0  0
    5.5900   11.3902    1.6337 C   0  0  0  0  0  0  0  0  0  0  0  0
    4.1637   11.2289   -0.3226 C   0  0  0  0  0  0  0  0  0  0  0  0
    4.1813   12.1632   -1.1404 O   0  0  0  0  0  0  0  0  0  0  0  0
    4.1412    9.9368   -0.7031 O   0  0  0  0  0  0  0  0  0  0  0  0
    3.8553    9.4119   -1.9313 C   0  0  0  0  0  0  0  0  0  0  0  0
    4.7332    9.8455   -3.0829 C   0  0  2  0  0  0  0  0  0  0  0  0
    4.2260   11.0014   -3.6525 O   0  0  0  0  0  0  0  0  0  0  0  0
    4.9003    8.7016   -4.0349 C   0  0  0  0  0  0  0  0  0  0  0  0
    5.6736    8.9980   -5.1944 N   0  0  0  0  0  0  0  0  0  0  0  0
    7.0353    9.0175   -5.1872 C   0  0  0  0  0  0  0  0  0  0  0  0
    7.7709    9.2921   -6.3189 C   0  0  0  0  0  0  0  0  0  0  0  0
    7.1310    9.5610   -7.5164 C   0  0  0  0  0  0  0  0  0  0  0  0
    7.8782    9.8553   -8.7318 C   0  0  0  0  0  0  0  0  0  0  0  0
    9.1518    9.3676   -8.9559 C   0  0  0  0  0  0  0  0  0  0  0  0
    9.8486    9.6600  -10.1230 C   0  0  0  0  0  0  0  0  0  0  0  0
    9.2914   10.4516  -11.1053 C   0  0  0  0  0  0  0  0  0  0  0  0
    8.0207   10.9389  -10.8829 C   0  0  0  0  0  0  0  0  0  0  0  0
    7.3328   10.6457   -9.7221 C   0  0  0  0  0  0  0  0  0  0  0  0
    5.7580    9.5309   -7.4759 C   0  0  0  0  0  0  0  0  0  0  0  0
    5.0209    9.2595   -6.3573 C   0  0  0  0  0  0  0  0  0  0  0  0
    3.7484    9.2489   -6.3801 O   0  0  0  0  0  0  0  0  0  0  0  0
  1  2  1  0
  2  3  1  0
  2  4  1  0
  4  5  2  0
  4  6  1  0
  6  7  1  0
  7  8  1  0
  8  9  1  6
  8 10  1  0
 10 11  1  0
 11 12  1  0
 12 13  2  0
 13 14  1  0
 14 15  1  0
 15 16  2  0
 16 17  1  0
 17 18  2  0
 18 19  1  0
 19 20  2  0
 14 21  2  0
 21 22  1  0
 22 23  2  0
 22 11  1  0
 20 15  1  0
M  END
$$$$
