protein_ligand_3
     RDKit          3D

 24 25  0  0  0  0  0  0  0  0999 V2000
    8.7473    8.1757   -3.2745 C   0  0  0  0  0  0  0  0  0  0  0  0
    7.7670    8.9796   -4.0523 C   0  0  0  0  0  0  0  0  0  0  0  0
    8.3205   10.3827   -4.1725 C   0  0  0  0  0  0  0  0  0  0  0  0
    7.6223    8.4840   -5.5001 C   0  0  0  0  0  0  0  0  0  0  0  0
    6.3781    9.0309   -3.4840 C   0  0  1  0  0  0  0  0  0  0  0  0
    5.6782    7.8395   -3.3893 N   0  0  0  0  0  0  0  0  0  0  0  0
    4.3374    7.6448   -3.8256 C   0  0  0  0  0  0  0  0  0  0  0  0
    3.9478    8.5528   -4.6100 O   0  0  0  0  0  0  0  0  0  0  0  0
    3.4616    6.5201   -3.4357 C   0  0  0  0  0  0  0  0  0  0  0  0
    2.1672    6.6951   -3.9481 F   0  0  0  0  0  0  0  0  0  0  0  0
    3.9549    5.3488   -3.9489 F   0  0  0  0  0  0  0  0  0  0  0  0
    3.4073    6.4583   -2.0529 F   0  0  0  0  0  0  0  0  0  0  0  0
    6.2660    9.8911   -2.2914 C   0  0  0  0  0  0  0  0  0  0  0  0
    6.4827    9.3517   -1.1284 O   0  0  0  0  0  0  0  0  0  0  0  0
    5.9525   11.2584   -2.1945 N   0  0  0  0  0  0  0  0  0  0  0  0
    5.5989   12.0305   -3.3808 C   0  0  0  0  0  0  0  0  0  0  0  0
    4.9688   13.3624   -3.0611 C   0  0  0  0  0  0  0  0  0  0  0  0
    4.2844   13.3757   -1.8126 O   0  0  0  0  0  0  0  0  0  0  0  0
    5.0450   13.0167   -0.7052 C   0  0  0  0  0  0  0  0  0  0  0  0
    4.9934   13.6526    0.5153 C   0  0  0  0  0  0  0  0  0  0  0  0
    5.7938   13.2127    1.5395 C   0  0  0  0  0  0  0  0  0  0  0  0
    6.6316   12.1446    1.3225 C   0  0  0  0  0  0  0  0  0  0  0  0
    6.6784   11.5070    0.0891 C   0  0  0  0  0  0  0  0  0  0  0  0
    5.8937   11.9253   -0.9346 C   0  0  0  0  0  0  0  0  0  0  0  0
  1  2  1  0
  2  3  1  0
  2  4  1  0
  2  5  1  0
  5  6  1  1
  6  7  1  0
  7  8  2  0
  7  9  1  0
  9 10  1  0
  9 11  1  0
  9 12  1  0
  5 13  1  0
 13 14  2  0
 13 15  1  0
 15 16  1  0
 16 17  1  0
 17 18  1  0
 18 19  1  0
 19 20  2  0
 20 21  1  0
 21 22  2  0
 22 23  1  0
 23 24  2  0
 24 15  1  0
 24 19  1  0
M  END
$$$$
