protein_ligand_3
     RDKit          3D

 24 25  0  0  0  0  0  0  0  0999 V2000
    8.5908    8.5216   -2.2435 C   0  0  0  0  0  0  0  0  0  0  0  0
    8.1399    9.4836   -3.2843 C   0  0  0  0  0  0  0  0  0  0  0  0
    8.8728   10.7864   -3.0498 C   0  0  0  0  0  0  0  0  0  0  0  0
    8.5486    9.0470   -4.7002 C   0  0  0  0  0  0  0  0  0  0  0  0
    6.6607    9.7371   -3.3324 C   0  0  1  0  0  0  0  0  0  0  0  0
    5.8460    8.7060   -3.7698 N   0  0  0  0  0  0  0  0  0  0  0  0
    4.4952    8.5076   -3.3673 C   0  0  0  0  0  0  0  0  0  0  0  0
    3.9937    9.5355   -2.8350 O   0  0  0  0  0  0  0  0  0  0  0  0
    3.7227    7.2591   -3.5364 C   0  0  0  0  0  0  0  0  0  0  0  0
    4.4244    6.1635   -3.0110 F   0  0  0  0  0  0  0  0  0  0  0  0
    2.5349    7.3533   -2.8590 F   0  0  0  0  0  0  0  0  0  0  0  0
    3.4950    7.0576   -4.8879 F   0  0  0  0  0  0  0  0  0  0  0  0
    6.1500   10.4445   -2.1434 C   0  0  0  0  0  0  0  0  0  0  0  0
    5.8827    9.7405   -1.0835 O   0  0  0  0  0  0  0  0  0  0  0  0
    5.8938   11.8138   -1.9522 N   0  0  0  0  0  0  0  0  0  0  0  0
    6.0308   12.7612   -3.0532 C   0  0  0  0  0  0  0  0  0  0  0  0
    5.3976   14.1002   -2.7717 C   0  0  0  0  0  0  0  0  0  0  0  0
    4.3117   14.0271   -1.8537 O   0  0  0  0  0  0  0  0  0  0  0  0
    4.6036   13.4552   -0.6201 C   0  0  0  0  0  0  0  0  0  0  0  0
    4.1496   13.9347    0.5884 C   0  0  0  0  0  0  0  0  0  0  0  0
    4.5044   13.2894    1.7464 C   0  0  0  0  0  0  0  0  0  0  0  0
    5.3078   12.1762    1.6729 C   0  0  0  0  0  0  0  0  0  0  0  0
    5.7619   11.6972    0.4504 C   0  0  0  0  0  0  0  0  0  0  0  0
    5.4204   12.3196   -0.7049 C   0  0  0  0  0  0  0  0  0  0  0  0
  1  2  1  0
  2  3  1  0
  2  4  1  0
  2  5  1  0
  5  6  1  1
  6  7  1  0
  7  8  2  0
  7  9  1  0
  9 10  1  0
  9 11  1  0
  9 12  1  0
  5 13  1  0
 13 14  2  0
 13 15  1  0
 15 16  1  0
 16 17  1  0
 17 18  1  0
 18 19  1  0
 19 20  2  0
 20 21  1  0
 21 22  2  0
 22 23  1  0
 23 24  2  0
 24 15  1  0
 24 19  1  0
M  END
$$$$
