protein_ligand_3
     RDKit          3D

 22 23  0  0  0  0  0  0  0  0999 V2000
    7.5590    8.3957   -4.2934 C   0  0  0  0  0  0  0  0  0  0  0  0
    6.7698    9.6411   -4.0315 C   0  0  0  0  0  0  0  0  0  0  0  0
    6.3335   10.3193   -5.2766 C   0  0  0  0  0  0  0  0  0  0  0  0
    7.6414   10.6044   -3.1883 C   0  0  0  0  0  0  0  0  0  0  0  0
    5.5660    9.3746   -3.1166 C   0  0  2  0  0  0  0  0  0  0  0  0
    4.6090    8.5922   -3.9496 N   0  0  0  0  0  0  0  0  0  0  0  0
    3.9692    7.4750   -3.3708 C   0  0  0  0  0  0  0  0  0  0  0  0
    4.3787    7.0868   -2.2345 O   0  0  0  0  0  0  0  0  0  0  0  0
    2.8643    6.7424   -4.0061 C   0  0  0  0  0  0  0  0  0  0  0  0
    3.3263    6.0122   -5.0687 F   0  0  0  0  0  0  0  0  0  0  0  0
    1.9535    7.6854   -4.4817 F   0  0  0  0  0  0  0  0  0  0  0  0
    2.2506    5.9331   -3.0438 F   0  0  0  0  0  0  0  0  0  0  0  0
    4.9007   10.5966   -2.6555 C   0  0  0  0  0  0  0  0  0  0  0  0
    3.8039   10.8907   -3.2629 O   0  0  0  0  0  0  0  0  0  0  0  0
    5.2962   11.4732   -1.6457 N   0  0  0  0  0  0  0  0  0  0  0  0
    6.4644   11.3794   -0.7994 C   0  0  0  0  0  0  0  0  0  0  0  0
    6.0132   11.9530    0.5580 C   0  0  0  0  0  0  0  0  0  0  0  0
    5.9497   13.4891    0.4243 C   0  0  0  0  0  0  0  0  0  0  0  0
    5.4291   13.7717   -0.9817 C   0  0  0  0  0  0  0  0  0  0  0  0
    4.4576   12.6646   -1.3429 C   0  0  0  0  0  0  0  0  0  0  0  0
    3.6558   12.2492   -0.1069 C   0  0  0  0  0  0  0  0  0  0  0  0
    4.5965   11.4973    0.8169 C   0  0  0  0  0  0  0  0  0  0  0  0
  1  2  1  0
  2  3  1  0
  2  4  1  0
  2  5  1  0
  5  6  1  6
  6  7  1  0
  7  8  2  0
  7  9  1  0
  9 10  1  0
  9 11  1  0
  9 12  1  0
  5 13  1  0
 13 14  2  0
 13 15  1  0
 15 16  1  0
 16 17  1  0
 17 18  1  0
 18 19  1  0
 19 20  1  0
 20 21  1  0
 21 22  1  0
 20 15  1  0
 22 17  1  0
M  END
$$$$
