protein_ligand_3
     RDKit          3D

 22 23  0  0  0  0  0  0  0  0999 V2000
    7.4558    8.4351   -4.2119 C   0  0  0  0  0  0  0  0  0  0  0  0
    6.8833    9.7642   -3.8270 C   0  0  0  0  0  0  0  0  0  0  0  0
    6.4562   10.5686   -4.9980 C   0  0  0  0  0  0  0  0  0  0  0  0
    7.9517   10.5417   -3.0191 C   0  0  0  0  0  0  0  0  0  0  0  0
    5.7288    9.6221   -2.8249 C   0  0  2  0  0  0  0  0  0  0  0  0
    4.6678    8.8729   -3.5564 N   0  0  0  0  0  0  0  0  0  0  0  0
    4.1853    7.6699   -2.9975 C   0  0  0  0  0  0  0  0  0  0  0  0
    4.7467    7.2459   -1.9417 O   0  0  0  0  0  0  0  0  0  0  0  0
    3.0779    6.8876   -3.5658 C   0  0  0  0  0  0  0  0  0  0  0  0
    1.9557    7.6644   -3.6789 F   0  0  0  0  0  0  0  0  0  0  0  0
    2.8045    5.8436   -2.6825 F   0  0  0  0  0  0  0  0  0  0  0  0
    3.4819    6.3705   -4.8015 F   0  0  0  0  0  0  0  0  0  0  0  0
    5.1790   10.9063   -2.3810 C   0  0  0  0  0  0  0  0  0  0  0  0
    4.4635   11.5306   -3.2507 O   0  0  0  0  0  0  0  0  0  0  0  0
    5.3244   11.5326   -1.1435 N   0  0  0  0  0  0  0  0  0  0  0  0
    5.6355   10.9191    0.1279 C   0  0  0  0  0  0  0  0  0  0  0  0
    4.8606   11.7532    1.1667 C   0  0  0  0  0  0  0  0  0  0  0  0
    5.6167   13.0841    1.3630 C   0  0  0  0  0  0  0  0  0  0  0  0
    6.1477   13.4777   -0.0120 C   0  0  0  0  0  0  0  0  0  0  0  0
    5.1423   13.0061   -1.0448 C   0  0  0  0  0  0  0  0  0  0  0  0
    3.7203   13.1684   -0.5019 C   0  0  0  0  0  0  0  0  0  0  0  0
    3.5194   12.1181    0.5752 C   0  0  0  0  0  0  0  0  0  0  0  0
  1  2  1  0
  2  3  1  0
  2  4  1  0
  2  5  1  0
  5  6  1  6
  6  7  1  0
  7  8  2  0
  7  9  1  0
  9 10  1  0
  9 11  1  0
  9 12  1  0
  5 13  1  0
 13 14  2  0
 13 15  1  0
 15 16  1  0
 16 17  1  0
 17 18  1  0
 18 19  1  0
 19 20  1  0
 20 21  1  0
 21 22  1  0
 20 15  1  0
 22 17  1  0
M  END
$$$$
