protein_ligand_3
     RDKit          3D

 24 25  0  0  0  0  0  0  0  0999 V2000
    8.8205    8.2144   -3.2513 C   0  0  0  0  0  0  0  0  0  0  0  0
    7.9048    9.0773   -4.0443 C   0  0  0  0  0  0  0  0  0  0  0  0
    8.5453   10.4438   -4.1531 C   0  0  0  0  0  0  0  0  0  0  0  0
    7.7546    8.5922   -5.4951 C   0  0  0  0  0  0  0  0  0  0  0  0
    6.5122    9.2135   -3.4996 C   0  0  1  0  0  0  0  0  0  0  0  0
    5.7707    8.0554   -3.3343 N   0  0  0  0  0  0  0  0  0  0  0  0
    4.5488    7.7671   -4.0050 C   0  0  0  0  0  0  0  0  0  0  0  0
    4.2650    8.6272   -4.8831 O   0  0  0  0  0  0  0  0  0  0  0  0
    3.6780    6.6024   -3.7415 C   0  0  0  0  0  0  0  0  0  0  0  0
    2.9710    6.2369   -4.8970 F   0  0  0  0  0  0  0  0  0  0  0  0
    4.4417    5.5279   -3.3664 F   0  0  0  0  0  0  0  0  0  0  0  0
    2.7835    6.9351   -2.7375 F   0  0  0  0  0  0  0  0  0  0  0  0
    6.4163   10.1559   -2.3693 C   0  0  0  0  0  0  0  0  0  0  0  0
    6.8929    9.7791   -1.2197 O   0  0  0  0  0  0  0  0  0  0  0  0
    5.8745   11.4526   -2.3224 N   0  0  0  0  0  0  0  0  0  0  0  0
    5.4019   12.1100   -3.5361 C   0  0  0  0  0  0  0  0  0  0  0  0
    4.5528   13.3260   -3.2651 C   0  0  0  0  0  0  0  0  0  0  0  0
    3.8686   13.2677   -2.0178 O   0  0  0  0  0  0  0  0  0  0  0  0
    4.6726   13.0835   -0.8981 C   0  0  0  0  0  0  0  0  0  0  0  0
    4.5064   13.7451    0.2983 C   0  0  0  0  0  0  0  0  0  0  0  0
    5.3639   13.4850    1.3376 C   0  0  0  0  0  0  0  0  0  0  0  0
    6.3723   12.5677    1.1597 C   0  0  0  0  0  0  0  0  0  0  0  0
    6.5340   11.9032   -0.0496 C   0  0  0  0  0  0  0  0  0  0  0  0
    5.6957   12.1448   -1.0877 C   0  0  0  0  0  0  0  0  0  0  0  0
  1  2  1  0
  2  3  1  0
  2  4  1  0
  2  5  1  0
  5  6  1  1
  6  7  1  0
  7  8  2  0
  7  9  1  0
  9 10  1  0
  9 11  1  0
  9 12  1  0
  5 13  1  0
 13 14  2  0
 13 15  1  0
 15 16  1  0
 16 17  1  0
 17 18  1  0
 18 19  1  0
 19 20  2  0
 20 21  1  0
 21 22  2  0
 22 23  1  0
 23 24  2  0
 24 15  1  0
 24 19  1  0
M  END
$$$$
