protein_ligand_3
     RDKit          3D

 24 25  0  0  0  0  0  0  0  0999 V2000
    8.5352    8.1993   -4.5333 C   0  0  0  0  0  0  0  0  0  0  0  0
    8.1020    9.3618   -3.7131 C   0  0  0  0  0  0  0  0  0  0  0  0
    8.9727    9.3973   -2.4761 C   0  0  0  0  0  0  0  0  0  0  0  0
    8.3588   10.7031   -4.4184 C   0  0  0  0  0  0  0  0  0  0  0  0
    6.6548    9.3667   -3.3130 C   0  0  1  0  0  0  0  0  0  0  0  0
    5.9913    8.1513   -3.2865 N   0  0  0  0  0  0  0  0  0  0  0  0
    4.6338    7.9551   -3.6669 C   0  0  0  0  0  0  0  0  0  0  0  0
    4.1479    8.9579   -4.2583 O   0  0  0  0  0  0  0  0  0  0  0  0
    3.8414    6.7316   -3.4235 C   0  0  0  0  0  0  0  0  0  0  0  0
    3.6280    6.0294   -4.6193 F   0  0  0  0  0  0  0  0  0  0  0  0
    4.5212    5.9007   -2.5713 F   0  0  0  0  0  0  0  0  0  0  0  0
    2.6217    7.0943   -2.8761 F   0  0  0  0  0  0  0  0  0  0  0  0
    6.3721   10.2320   -2.1527 C   0  0  0  0  0  0  0  0  0  0  0  0
    6.5194    9.7253   -0.9644 O   0  0  0  0  0  0  0  0  0  0  0  0
    5.9536   11.5738   -2.1117 N   0  0  0  0  0  0  0  0  0  0  0  0
    5.6799   12.3098   -3.3413 C   0  0  0  0  0  0  0  0  0  0  0  0
    4.9253   13.5949   -3.1132 C   0  0  0  0  0  0  0  0  0  0  0  0
    4.1074   13.5678   -1.9481 O   0  0  0  0  0  0  0  0  0  0  0  0
    4.7641   13.2727   -0.7583 C   0  0  0  0  0  0  0  0  0  0  0  0
    4.5324   13.9121    0.4393 C   0  0  0  0  0  0  0  0  0  0  0  0
    5.2435   13.5386    1.5520 C   0  0  0  0  0  0  0  0  0  0  0  0
    6.1738   12.5321    1.4448 C   0  0  0  0  0  0  0  0  0  0  0  0
    6.4023   11.8906    0.2339 C   0  0  0  0  0  0  0  0  0  0  0  0
    5.7082   12.2439   -0.8762 C   0  0  0  0  0  0  0  0  0  0  0  0
  1  2  1  0
  2  3  1  0
  2  4  1  0
  2  5  1  0
  5  6  1  1
  6  7  1  0
  7  8  2  0
  7  9  1  0
  9 10  1  0
  9 11  1  0
  9 12  1  0
  5 13  1  0
 13 14  2  0
 13 15  1  0
 15 16  1  0
 16 17  1  0
 17 18  1  0
 18 19  1  0
 19 20  2  0
 20 21  1  0
 21 22  2  0
 22 23  1  0
 23 24  2  0
 24 15  1  0
 24 19  1  0
M  END
$$$$
