protein_ligand_3
     RDKit          3D

 24 25  0  0  0  0  0  0  0  0999 V2000
    5.4149   10.9764   -5.7679 C   0  0  0  0  0  0  0  0  0  0  0  0
    5.3741    9.4972   -5.6180 C   0  0  0  0  0  0  0  0  0  0  0  0
    4.2116    8.9870   -6.4412 C   0  0  0  0  0  0  0  0  0  0  0  0
    6.6146    8.8146   -6.2163 C   0  0  0  0  0  0  0  0  0  0  0  0
    5.2552    8.9937   -4.2085 C   0  0  1  0  0  0  0  0  0  0  0  0
    5.2056    7.6228   -4.0179 N   0  0  0  0  0  0  0  0  0  0  0  0
    4.0452    6.8950   -3.6308 C   0  0  0  0  0  0  0  0  0  0  0  0
    2.9955    7.5921   -3.6900 O   0  0  0  0  0  0  0  0  0  0  0  0
    4.0208    5.4802   -3.2042 C   0  0  0  0  0  0  0  0  0  0  0  0
    4.7573    5.3026   -2.0233 F   0  0  0  0  0  0  0  0  0  0  0  0
    2.7304    5.0950   -2.9490 F   0  0  0  0  0  0  0  0  0  0  0  0
    4.5680    4.7033   -4.2121 F   0  0  0  0  0  0  0  0  0  0  0  0
    6.1336    9.7018   -3.2588 C   0  0  0  0  0  0  0  0  0  0  0  0
    7.4113    9.4695   -3.3210 O   0  0  0  0  0  0  0  0  0  0  0  0
    5.8090   10.6297   -2.2533 N   0  0  0  0  0  0  0  0  0  0  0  0
    4.4218   11.0046   -2.0011 C   0  0  0  0  0  0  0  0  0  0  0  0
    4.2265   11.7267   -0.6921 C   0  0  0  0  0  0  0  0  0  0  0  0
    5.1981   11.3831    0.2904 O   0  0  0  0  0  0  0  0  0  0  0  0
    6.5241   11.5781   -0.0803 C   0  0  0  0  0  0  0  0  0  0  0  0
    7.4935   12.1082    0.7420 C   0  0  0  0  0  0  0  0  0  0  0  0
    8.7724   12.2580    0.2675 C   0  0  0  0  0  0  0  0  0  0  0  0
    9.0569   11.8748   -1.0218 C   0  0  0  0  0  0  0  0  0  0  0  0
    8.0746   11.3401   -1.8459 C   0  0  0  0  0  0  0  0  0  0  0  0
    6.8057   11.1821   -1.3947 C   0  0  0  0  0  0  0  0  0  0  0  0
  1  2  1  0
  2  3  1  0
  2  4  1  0
  2  5  1  0
  5  6  1  6
  6  7  1  0
  7  8  2  0
  7  9  1  0
  9 10  1  0
  9 11  1  0
  9 12  1  0
  5 13  1  0
 13 14  2  0
 13 15  1  0
 15 16  1  0
 16 17  1  0
 17 18  1  0
 18 19  1  0
 19 20  2  0
 20 21  1  0
 21 22  2  0
 22 23  1  0
 23 24  2  0
 24 15  1  0
 24 19  1  0
M  END
$$$$
