protein_ligand_3
     RDKit          3D

 22 23  0  0  0  0  0  0  0  0999 V2000
    7.8370    8.8091   -4.4817 C   0  0  0  0  0  0  0  0  0  0  0  0
    6.9064    9.9319   -4.1418 C   0  0  0  0  0  0  0  0  0  0  0  0
    6.2695   10.5347   -5.3382 C   0  0  0  0  0  0  0  0  0  0  0  0
    7.7049   11.0135   -3.3727 C   0  0  0  0  0  0  0  0  0  0  0  0
    5.8387    9.5032   -3.1252 C   0  0  2  0  0  0  0  0  0  0  0  0
    5.0492    8.4424   -3.8131 N   0  0  0  0  0  0  0  0  0  0  0  0
    4.4262    7.4494   -3.0268 C   0  0  0  0  0  0  0  0  0  0  0  0
    4.6595    7.4554   -1.7798 O   0  0  0  0  0  0  0  0  0  0  0  0
    3.5298    6.4174   -3.5679 C   0  0  0  0  0  0  0  0  0  0  0  0
    4.2191    5.5789   -4.4031 F   0  0  0  0  0  0  0  0  0  0  0  0
    2.5427    7.0655   -4.3099 F   0  0  0  0  0  0  0  0  0  0  0  0
    2.9450    5.7268   -2.5009 F   0  0  0  0  0  0  0  0  0  0  0  0
    4.9331   10.5881   -2.7363 C   0  0  0  0  0  0  0  0  0  0  0  0
    4.0201   10.8801   -3.5963 O   0  0  0  0  0  0  0  0  0  0  0  0
    4.9283   11.3364   -1.5596 N   0  0  0  0  0  0  0  0  0  0  0  0
    3.7825   11.8257   -0.8264 C   0  0  0  0  0  0  0  0  0  0  0  0
    4.2371   13.1783   -0.2440 C   0  0  0  0  0  0  0  0  0  0  0  0
    5.1682   12.8887    0.9521 C   0  0  0  0  0  0  0  0  0  0  0  0
    5.9887   11.6624    0.5643 C   0  0  0  0  0  0  0  0  0  0  0  0
    6.2221   11.7206   -0.9330 C   0  0  0  0  0  0  0  0  0  0  0  0
    6.4307   13.1718   -1.3733 C   0  0  0  0  0  0  0  0  0  0  0  0
    5.0896   13.8759   -1.2777 C   0  0  0  0  0  0  0  0  0  0  0  0
  1  2  1  0
  2  3  1  0
  2  4  1  0
  2  5  1  0
  5  6  1  6
  6  7  1  0
  7  8  2  0
  7  9  1  0
  9 10  1  0
  9 11  1  0
  9 12  1  0
  5 13  1  0
 13 14  2  0
 13 15  1  0
 15 16  1  0
 16 17  1  0
 17 18  1  0
 18 19  1  0
 19 20  1  0
 20 21  1  0
 21 22  1  0
 20 15  1  0
 22 17  1  0
M  END
$$$$
