protein_ligand_3
     RDKit          3D

 22 23  0  0  0  0  0  0  0  0999 V2000
   11.2669   -6.6972  -12.5848 C   0  0  0  0  0  0  0  0  0  0  0  0
   11.2424   -7.8994  -11.6922 C   0  0  0  0  0  0  0  0  0  0  0  0
   12.1130   -7.7500  -10.5005 C   0  0  0  0  0  0  0  0  0  0  0  0
   11.6911   -9.1307  -12.5175 C   0  0  0  0  0  0  0  0  0  0  0  0
    9.8137   -8.2695  -11.2690 C   0  0  2  0  0  0  0  0  0  0  0  0
    9.0253   -8.2893  -12.5338 N   0  0  0  0  0  0  0  0  0  0  0  0
    8.0053   -9.2545  -12.6770 C   0  0  0  0  0  0  0  0  0  0  0  0
    8.0160  -10.2429  -11.8817 O   0  0  0  0  0  0  0  0  0  0  0  0
    6.9404   -9.1788  -13.6877 C   0  0  0  0  0  0  0  0  0  0  0  0
    6.7329   -7.8783  -14.0636 F   0  0  0  0  0  0  0  0  0  0  0  0
    5.7702   -9.6607  -13.1019 F   0  0  0  0  0  0  0  0  0  0  0  0
    7.2948   -9.9862  -14.7741 F   0  0  0  0  0  0  0  0  0  0  0  0
    9.2073   -7.3019  -10.3500 C   0  0  0  0  0  0  0  0  0  0  0  0
    8.5417   -6.3518  -10.9091 O   0  0  0  0  0  0  0  0  0  0  0  0
    9.2524   -7.2809   -8.9564 N   0  0  0  0  0  0  0  0  0  0  0  0
   10.0218   -8.1379   -8.0826 C   0  0  0  0  0  0  0  0  0  0  0  0
    9.1364   -8.3232   -6.8348 C   0  0  0  0  0  0  0  0  0  0  0  0
    9.2109   -7.0239   -6.0055 C   0  0  0  0  0  0  0  0  0  0  0  0
    9.2586   -5.8792   -7.0129 C   0  0  0  0  0  0  0  0  0  0  0  0
    8.4281   -6.2893   -8.2138 C   0  0  0  0  0  0  0  0  0  0  0  0
    7.2073   -7.0911   -7.7555 C   0  0  0  0  0  0  0  0  0  0  0  0
    7.7007   -8.4480   -7.2877 C   0  0  0  0  0  0  0  0  0  0  0  0
  1  2  1  0
  2  3  1  0
  2  4  1  0
  2  5  1  0
  5  6  1  6
  6  7  1  0
  7  8  2  0
  7  9  1  0
  9 10  1  0
  9 11  1  0
  9 12  1  0
  5 13  1  0
 13 14  2  0
 13 15  1  0
 15 16  1  0
 16 17  1  0
 17 18  1  0
 18 19  1  0
 19 20  1  0
 20 21  1  0
 21 22  1  0
 20 15  1  0
 22 17  1  0
M  END
$$$$
