protein_ligand_1
     RDKit          3D

 25 27  0  0  0  0  0  0  0  0999 V2000
    3.5712    9.2186   -8.4353 C   0  0  0  0  0  0  0  0  0  0  0  0
    4.0038    7.8131   -8.7763 C   0  0  0  0  0  0  0  0  0  0  0  0
    3.7163    7.5718  -10.2495 C   0  0  0  0  0  0  0  0  0  0  0  0
    3.2906    6.7884   -8.0115 C   0  0  0  0  0  0  0  0  0  0  0  0
    3.1550    5.6466   -8.5188 O   0  0  0  0  0  0  0  0  0  0  0  0
    2.7445    6.9748   -6.7566 O   0  0  0  0  0  0  0  0  0  0  0  0
    2.9734    6.1222   -5.6649 C   0  0  0  0  0  0  0  0  0  0  0  0
    4.1239    6.5527   -4.8000 C   0  0  1  0  0  0  0  0  0  0  0  0
    4.0930    7.9565   -4.7500 O   0  0  0  0  0  0  0  0  0  0  0  0
    5.0334    8.2571   -3.7602 C   0  0  1  0  0  0  0  0  0  0  0  0
    4.8258    9.6032   -3.2975 N   0  0  0  0  0  0  0  0  0  0  0  0
    4.3213   10.6053   -4.0227 C   0  0  0  0  0  0  0  0  0  0  0  0
    4.2811   11.7464   -3.2156 C   0  0  0  0  0  0  0  0  0  0  0  0
    4.7804   11.3652   -2.0004 C   0  0  0  0  0  0  0  0  0  0  0  0
    4.9714   12.1626   -0.7670 C   0  0  0  0  0  0  0  0  0  0  0  0
    4.0522   13.1555   -0.4472 C   0  0  0  0  0  0  0  0  0  0  0  0
    4.1707   13.9296    0.6800 C   0  0  0  0  0  0  0  0  0  0  0  0
    5.2200   13.7477    1.5471 C   0  0  0  0  0  0  0  0  0  0  0  0
    6.1385   12.7665    1.2417 C   0  0  0  0  0  0  0  0  0  0  0  0
    6.0216   11.9745    0.0932 C   0  0  0  0  0  0  0  0  0  0  0  0
    6.9418   11.0253   -0.1691 F   0  0  0  0  0  0  0  0  0  0  0  0
    5.0954   10.0568   -2.1041 N   0  0  0  0  0  0  0  0  0  0  0  0
    4.8562    7.2274   -2.6754 C   0  0  0  0  0  0  0  0  0  0  0  0
    3.9535    6.1957   -3.3524 C   0  0  1  0  0  0  0  0  0  0  0  0
    2.6584    6.4717   -2.9658 O   0  0  0  0  0  0  0  0  0  0  0  0
  1  2  1  0
  2  3  1  0
  2  4  1  0
  4  5  2  0
  4  6  1  0
  6  7  1  0
  8  7  1  6
  8  9  1  0
  9 10  1  0
 10 11  1  1
 11 12  1  0
 12 13  2  0
 13 14  1  0
 14 15  1  0
 15 16  2  0
 16 17  1  0
 17 18  2  0
 18 19  1  0
 19 20  2  0
 20 21  1  0
 14 22  2  0
 10 23  1  0
 23 24  1  0
 24 25  1  1
 24  8  1  0
 22 11  1  0
 20 15  1  0
M  END
$$$$
