protein_ligand_1
     RDKit          3D

 25 27  0  0  0  0  0  0  0  0999 V2000
    6.1638   12.2044   -7.4483 C   0  0  0  0  0  0  0  0  0  0  0  0
    5.5018   11.1578   -6.5849 C   0  0  0  0  0  0  0  0  0  0  0  0
    4.0075   11.1885   -6.8629 C   0  0  0  0  0  0  0  0  0  0  0  0
    5.6912   11.3883   -5.1515 C   0  0  0  0  0  0  0  0  0  0  0  0
    6.7486   11.9493   -4.7685 O   0  0  0  0  0  0  0  0  0  0  0  0
    4.7891   11.0345   -4.1674 O   0  0  0  0  0  0  0  0  0  0  0  0
    5.0374   10.0618   -3.1859 C   0  0  0  0  0  0  0  0  0  0  0  0
    4.2705    8.7876   -3.3984 C   0  0  1  0  0  0  0  0  0  0  0  0
    4.7920    8.1865   -4.5563 O   0  0  0  0  0  0  0  0  0  0  0  0
    4.1954    6.9222   -4.5509 C   0  0  1  0  0  0  0  0  0  0  0  0
    4.9300    6.0439   -5.4216 N   0  0  0  0  0  0  0  0  0  0  0  0
    6.0284    6.3703   -6.1084 C   0  0  0  0  0  0  0  0  0  0  0  0
    6.4371    5.2456   -6.8315 C   0  0  0  0  0  0  0  0  0  0  0  0
    5.5351    4.2606   -6.5364 C   0  0  0  0  0  0  0  0  0  0  0  0
    5.4755    2.8611   -7.0175 C   0  0  0  0  0  0  0  0  0  0  0  0
    5.1982    2.6112   -8.3568 C   0  0  0  0  0  0  0  0  0  0  0  0
    5.1287    1.3388   -8.8668 C   0  0  0  0  0  0  0  0  0  0  0  0
    5.3343    0.2482   -8.0579 C   0  0  0  0  0  0  0  0  0  0  0  0
    5.6101    0.4821   -6.7280 C   0  0  0  0  0  0  0  0  0  0  0  0
    5.6820    1.7781   -6.2035 C   0  0  0  0  0  0  0  0  0  0  0  0
    5.9543    1.9636   -4.8965 F   0  0  0  0  0  0  0  0  0  0  0  0
    4.6426    4.7971   -5.6775 N   0  0  0  0  0  0  0  0  0  0  0  0
    4.1875    6.4595   -3.1176 C   0  0  0  0  0  0  0  0  0  0  0  0
    4.5501    7.7384   -2.3623 C   0  0  1  0  0  0  0  0  0  0  0  0
    5.9064    7.6946   -2.1146 O   0  0  0  0  0  0  0  0  0  0  0  0
  1  2  1  0
  2  3  1  0
  2  4  1  0
  4  5  2  0
  4  6  1  0
  6  7  1  0
  8  7  1  1
  8  9  1  0
  9 10  1  0
 10 11  1  6
 11 12  1  0
 12 13  2  0
 13 14  1  0
 14 15  1  0
 15 16  2  0
 16 17  1  0
 17 18  2  0
 18 19  1  0
 19 20  2  0
 20 21  1  0
 14 22  2  0
 10 23  1  0
 23 24  1  0
 24 25  1  6
 24  8  1  0
 22 11  1  0
 20 15  1  0
M  END
$$$$
