protein_ligand_1
     RDKit          3D

 25 27  0  0  0  0  0  0  0  0999 V2000
    7.5537    3.0092   -7.3704 C   0  0  0  0  0  0  0  0  0  0  0  0
    6.1174    3.2633   -6.9811 C   0  0  0  0  0  0  0  0  0  0  0  0
    5.3241    3.5416   -8.2477 C   0  0  0  0  0  0  0  0  0  0  0  0
    5.9556    4.4167   -6.0939 C   0  0  0  0  0  0  0  0  0  0  0  0
    6.8958    5.2465   -6.0107 O   0  0  0  0  0  0  0  0  0  0  0  0
    4.8361    4.6739   -5.3269 O   0  0  0  0  0  0  0  0  0  0  0  0
    3.8835    5.6592   -5.6315 C   0  0  0  0  0  0  0  0  0  0  0  0
    3.3974    6.4145   -4.4273 C   0  0  1  0  0  0  0  0  0  0  0  0
    4.5192    7.0412   -3.8592 O   0  0  0  0  0  0  0  0  0  0  0  0
    3.9549    7.8908   -2.9031 C   0  0  1  0  0  0  0  0  0  0  0  0
    4.9160    8.8934   -2.5288 N   0  0  0  0  0  0  0  0  0  0  0  0
    6.1724    8.9713   -2.9759 C   0  0  0  0  0  0  0  0  0  0  0  0
    6.7772   10.0806   -2.3770 C   0  0  0  0  0  0  0  0  0  0  0  0
    5.8243   10.6382   -1.5695 C   0  0  0  0  0  0  0  0  0  0  0  0
    5.9083   11.8318   -0.6967 C   0  0  0  0  0  0  0  0  0  0  0  0
    4.8664   12.7523   -0.6974 C   0  0  0  0  0  0  0  0  0  0  0  0
    4.8817   13.8785    0.0871 C   0  0  0  0  0  0  0  0  0  0  0  0
    5.9456   14.1406    0.9151 C   0  0  0  0  0  0  0  0  0  0  0  0
    6.9852   13.2359    0.9252 C   0  0  0  0  0  0  0  0  0  0  0  0
    6.9739   12.0859    0.1268 C   0  0  0  0  0  0  0  0  0  0  0  0
    8.0111   11.2261    0.1663 F   0  0  0  0  0  0  0  0  0  0  0  0
    4.7151    9.8799   -1.6985 N   0  0  0  0  0  0  0  0  0  0  0  0
    2.7119    8.4697   -3.5262 C   0  0  0  0  0  0  0  0  0  0  0  0
    2.5331    7.5936   -4.7664 C   0  0  1  0  0  0  0  0  0  0  0  0
    3.0896    8.2740   -5.8295 O   0  0  0  0  0  0  0  0  0  0  0  0
  1  2  1  0
  2  3  1  0
  2  4  1  0
  4  5  2  0
  4  6  1  0
  6  7  1  0
  8  7  1  6
  8  9  1  0
  9 10  1  0
 10 11  1  6
 11 12  1  0
 12 13  2  0
 13 14  1  0
 14 15  1  0
 15 16  2  0
 16 17  1  0
 17 18  2  0
 18 19  1  0
 19 20  2  0
 20 21  1  0
 14 22  2  0
 10 23  1  0
 23 24  1  0
 24 25  1  6
 24  8  1  0
 22 11  1  0
 20 15  1  0
M  END
$$$$
