protein_ligand_1
     RDKit          3D

 25 27  0  0  0  0  0  0  0  0999 V2000
    4.8713    0.5679   -3.7076 C   0  0  0  0  0  0  0  0  0  0  0  0
    5.3320    1.9520   -3.3189 C   0  0  0  0  0  0  0  0  0  0  0  0
    4.3028    2.5465   -2.3711 C   0  0  0  0  0  0  0  0  0  0  0  0
    5.4597    2.8594   -4.4608 C   0  0  0  0  0  0  0  0  0  0  0  0
    5.5141    2.3668   -5.6157 O   0  0  0  0  0  0  0  0  0  0  0  0
    5.5268    4.2363   -4.3735 O   0  0  0  0  0  0  0  0  0  0  0  0
    4.6633    5.1102   -5.0530 C   0  0  0  0  0  0  0  0  0  0  0  0
    3.7377    5.8656   -4.1421 C   0  0  1  0  0  0  0  0  0  0  0  0
    4.5342    6.7466   -3.3915 O   0  0  0  0  0  0  0  0  0  0  0  0
    3.5910    7.5561   -2.7514 C   0  0  1  0  0  0  0  0  0  0  0  0
    4.2314    8.7555   -2.2820 N   0  0  0  0  0  0  0  0  0  0  0  0
    5.3141    9.3214   -2.8227 C   0  0  0  0  0  0  0  0  0  0  0  0
    5.6219   10.4650   -2.0794 C   0  0  0  0  0  0  0  0  0  0  0  0
    4.6780   10.5370   -1.0920 C   0  0  0  0  0  0  0  0  0  0  0  0
    4.5139   11.5409   -0.0155 C   0  0  0  0  0  0  0  0  0  0  0  0
    3.3009   11.6265    0.6586 C   0  0  0  0  0  0  0  0  0  0  0  0
    3.0833   12.5338    1.6652 C   0  0  0  0  0  0  0  0  0  0  0  0
    4.0734   13.4046    2.0490 C   0  0  0  0  0  0  0  0  0  0  0  0
    5.2809   13.3303    1.3887 C   0  0  0  0  0  0  0  0  0  0  0  0
    5.5073   12.4065    0.3614 C   0  0  0  0  0  0  0  0  0  0  0  0
    6.7031   12.3663   -0.2592 F   0  0  0  0  0  0  0  0  0  0  0  0
    3.8595    9.4770   -1.2603 N   0  0  0  0  0  0  0  0  0  0  0  0
    2.5040    7.8243   -3.7588 C   0  0  0  0  0  0  0  0  0  0  0  0
    2.8311    6.8193   -4.8636 C   0  0  1  0  0  0  0  0  0  0  0  0
    3.5539    7.4931   -5.8261 O   0  0  0  0  0  0  0  0  0  0  0  0
  1  2  1  0
  2  3  1  0
  2  4  1  0
  4  5  2  0
  4  6  1  0
  6  7  1  0
  8  7  1  6
  8  9  1  0
  9 10  1  0
 10 11  1  6
 11 12  1  0
 12 13  2  0
 13 14  1  0
 14 15  1  0
 15 16  2  0
 16 17  1  0
 17 18  2  0
 18 19  1  0
 19 20  2  0
 20 21  1  0
 14 22  2  0
 10 23  1  0
 23 24  1  0
 24 25  1  6
 24  8  1  0
 22 11  1  0
 20 15  1  0
M  END
$$$$
