protein_ligand_1
     RDKit          3D

 25 27  0  0  0  0  0  0  0  0999 V2000
    2.4729    6.8676   -8.1454 C   0  0  0  0  0  0  0  0  0  0  0  0
    1.3208    6.8835   -7.1701 C   0  0  0  0  0  0  0  0  0  0  0  0
    0.1279    7.5314   -7.8544 C   0  0  0  0  0  0  0  0  0  0  0  0
    1.6044    7.6486   -5.9545 C   0  0  0  0  0  0  0  0  0  0  0  0
    1.5856    8.9037   -6.0172 O   0  0  0  0  0  0  0  0  0  0  0  0
    1.8963    7.0968   -4.7224 O   0  0  0  0  0  0  0  0  0  0  0  0
    3.1639    7.1426   -4.1206 C   0  0  0  0  0  0  0  0  0  0  0  0
    3.8612    5.8122   -4.0918 C   0  0  1  0  0  0  0  0  0  0  0  0
    4.3298    5.5695   -5.3939 O   0  0  0  0  0  0  0  0  0  0  0  0
    5.1484    4.4481   -5.2302 C   0  0  1  0  0  0  0  0  0  0  0  0
    6.0211    4.3241   -6.3669 N   0  0  0  0  0  0  0  0  0  0  0  0
    7.2714    4.7886   -6.4415 C   0  0  0  0  0  0  0  0  0  0  0  0
    7.7781    4.4674   -7.7044 C   0  0  0  0  0  0  0  0  0  0  0  0
    6.7750    3.8016   -8.3538 C   0  0  0  0  0  0  0  0  0  0  0  0
    6.7532    3.2286   -9.7194 C   0  0  0  0  0  0  0  0  0  0  0  0
    6.2868    1.9325   -9.9081 C   0  0  0  0  0  0  0  0  0  0  0  0
    6.2402    1.3425  -11.1465 C   0  0  0  0  0  0  0  0  0  0  0  0
    6.6600    2.0235  -12.2628 C   0  0  0  0  0  0  0  0  0  0  0  0
    7.1247    3.3094  -12.0895 C   0  0  0  0  0  0  0  0  0  0  0  0
    7.1741    3.9152  -10.8283 C   0  0  0  0  0  0  0  0  0  0  0  0
    7.6357    5.1752  -10.7019 F   0  0  0  0  0  0  0  0  0  0  0  0
    5.7325    3.7420   -7.4986 N   0  0  0  0  0  0  0  0  0  0  0  0
    5.8920    4.6471   -3.9356 C   0  0  0  0  0  0  0  0  0  0  0  0
    5.1410    5.8217   -3.3080 C   0  0  1  0  0  0  0  0  0  0  0  0
    5.8498    6.9661   -3.6094 O   0  0  0  0  0  0  0  0  0  0  0  0
  1  2  1  0
  2  3  1  0
  2  4  1  0
  4  5  2  0
  4  6  1  0
  6  7  1  0
  8  7  1  6
  8  9  1  0
  9 10  1  0
 10 11  1  6
 11 12  1  0
 12 13  2  0
 13 14  1  0
 14 15  1  0
 15 16  2  0
 16 17  1  0
 17 18  2  0
 18 19  1  0
 19 20  2  0
 20 21  1  0
 14 22  2  0
 10 23  1  0
 23 24  1  0
 24 25  1  6
 24  8  1  0
 22 11  1  0
 20 15  1  0
M  END
$$$$
