protein_ligand_1
     RDKit          3D

 25 27  0  0  0  0  0  0  0  0999 V2000
    5.8349    1.9508   -8.0463 C   0  0  0  0  0  0  0  0  0  0  0  0
    6.0130    3.4057   -7.6849 C   0  0  0  0  0  0  0  0  0  0  0  0
    7.3776    3.5703   -7.0354 C   0  0  0  0  0  0  0  0  0  0  0  0
    5.0088    3.8916   -6.7366 C   0  0  0  0  0  0  0  0  0  0  0  0
    4.1055    3.1022   -6.3620 O   0  0  0  0  0  0  0  0  0  0  0  0
    4.9704    5.1678   -6.2098 O   0  0  0  0  0  0  0  0  0  0  0  0
    3.7918    5.9091   -6.0299 C   0  0  0  0  0  0  0  0  0  0  0  0
    3.5751    6.3541   -4.6114 C   0  0  1  0  0  0  0  0  0  0  0  0
    4.6703    7.1637   -4.2665 O   0  0  0  0  0  0  0  0  0  0  0  0
    4.2831    7.7117   -3.0401 C   0  0  1  0  0  0  0  0  0  0  0  0
    5.0923    8.8666   -2.7565 N   0  0  0  0  0  0  0  0  0  0  0  0
    6.1567    9.2619   -3.4604 C   0  0  0  0  0  0  0  0  0  0  0  0
    6.6635   10.4210   -2.8650 C   0  0  0  0  0  0  0  0  0  0  0  0
    5.8530   10.6786   -1.7936 C   0  0  0  0  0  0  0  0  0  0  0  0
    5.9181   11.7793   -0.8047 C   0  0  0  0  0  0  0  0  0  0  0  0
    7.1458   12.1316   -0.2557 C   0  0  0  0  0  0  0  0  0  0  0  0
    7.2754   13.1414    0.6649 C   0  0  0  0  0  0  0  0  0  0  0  0
    6.1773   13.8521    1.0836 C   0  0  0  0  0  0  0  0  0  0  0  0
    4.9541   13.5129    0.5470 C   0  0  0  0  0  0  0  0  0  0  0  0
    4.8172   12.4837   -0.3922 C   0  0  0  0  0  0  0  0  0  0  0  0
    3.6024   12.1833   -0.8927 F   0  0  0  0  0  0  0  0  0  0  0  0
    4.9169    9.7063   -1.7732 N   0  0  0  0  0  0  0  0  0  0  0  0
    2.8169    8.0348   -3.1602 C   0  0  0  0  0  0  0  0  0  0  0  0
    2.4304    7.3111   -4.4504 C   0  0  1  0  0  0  0  0  0  0  0  0
    2.4703    8.2423   -5.4673 O   0  0  0  0  0  0  0  0  0  0  0  0
  1  2  1  0
  2  3  1  0
  2  4  1  0
  4  5  2  0
  4  6  1  0
  6  7  1  0
  8  7  1  6
  8  9  1  0
  9 10  1  0
 10 11  1  6
 11 12  1  0
 12 13  2  0
 13 14  1  0
 14 15  1  0
 15 16  2  0
 16 17  1  0
 17 18  2  0
 18 19  1  0
 19 20  2  0
 20 21  1  0
 14 22  2  0
 10 23  1  0
 23 24  1  0
 24 25  1  6
 24  8  1  0
 22 11  1  0
 20 15  1  0
M  END
$$$$
