protein_ligand_1
     RDKit          3D

 25 27  0  0  0  0  0  0  0  0999 V2000
    3.1513   12.8730    1.1915 C   0  0  0  0  0  0  0  0  0  0  0  0
    4.2669   12.7532    0.1815 C   0  0  0  0  0  0  0  0  0  0  0  0
    3.8072   13.4034   -1.1135 C   0  0  0  0  0  0  0  0  0  0  0  0
    4.6246   11.3661   -0.1211 C   0  0  0  0  0  0  0  0  0  0  0  0
    4.3339   10.4750    0.7161 O   0  0  0  0  0  0  0  0  0  0  0  0
    5.2662   10.9473   -1.2703 O   0  0  0  0  0  0  0  0  0  0  0  0
    5.8188    9.6679   -1.4406 C   0  0  0  0  0  0  0  0  0  0  0  0
    4.9073    8.7126   -2.1571 C   0  0  1  0  0  0  0  0  0  0  0  0
    4.6809    9.2474   -3.4365 O   0  0  0  0  0  0  0  0  0  0  0  0
    4.0275    8.2061   -4.1020 C   0  0  1  0  0  0  0  0  0  0  0  0
    4.0972    8.4287   -5.5214 N   0  0  0  0  0  0  0  0  0  0  0  0
    5.1107    9.0112   -6.1681 C   0  0  0  0  0  0  0  0  0  0  0  0
    4.7968    9.0382   -7.5304 C   0  0  0  0  0  0  0  0  0  0  0  0
    3.5668    8.4505   -7.6445 C   0  0  0  0  0  0  0  0  0  0  0  0
    2.7457    8.2085   -8.8531 C   0  0  0  0  0  0  0  0  0  0  0  0
    2.5030    9.2563   -9.7342 C   0  0  0  0  0  0  0  0  0  0  0  0
    1.7508    9.0993  -10.8715 C   0  0  0  0  0  0  0  0  0  0  0  0
    1.2016    7.8802  -11.1850 C   0  0  0  0  0  0  0  0  0  0  0  0
    1.4346    6.8331  -10.3198 C   0  0  0  0  0  0  0  0  0  0  0  0
    2.2012    6.9885   -9.1587 C   0  0  0  0  0  0  0  0  0  0  0  0
    2.4053    5.9386   -8.3386 F   0  0  0  0  0  0  0  0  0  0  0  0
    3.1880    8.0993   -6.3975 N   0  0  0  0  0  0  0  0  0  0  0  0
    4.7052    6.9318   -3.6716 C   0  0  0  0  0  0  0  0  0  0  0  0
    5.5543    7.3999   -2.4894 C   0  0  1  0  0  0  0  0  0  0  0  0
    6.8276    7.6293   -2.9680 O   0  0  0  0  0  0  0  0  0  0  0  0
  1  2  1  0
  2  3  1  0
  2  4  1  0
  4  5  2  0
  4  6  1  0
  6  7  1  0
  8  7  1  1
  8  9  1  0
  9 10  1  0
 10 11  1  6
 11 12  1  0
 12 13  2  0
 13 14  1  0
 14 15  1  0
 15 16  2  0
 16 17  1  0
 17 18  2  0
 18 19  1  0
 19 20  2  0
 20 21  1  0
 14 22  2  0
 10 23  1  0
 23 24  1  0
 24 25  1  6
 24  8  1  0
 22 11  1  0
 20 15  1  0
M  END
$$$$
