protein_ligand_1
     RDKit          3D

 25 27  0  0  0  0  0  0  0  0999 V2000
    2.1004    4.3273   -9.3998 C   0  0  0  0  0  0  0  0  0  0  0  0
    3.0676    4.8054   -8.3438 C   0  0  0  0  0  0  0  0  0  0  0  0
    2.7668    4.0618   -7.0525 C   0  0  0  0  0  0  0  0  0  0  0  0
    2.9568    6.2387   -8.0665 C   0  0  0  0  0  0  0  0  0  0  0  0
    2.6074    7.0052   -8.9991 O   0  0  0  0  0  0  0  0  0  0  0  0
    3.2088    6.8297   -6.8438 O   0  0  0  0  0  0  0  0  0  0  0  0
    3.3940    6.1162   -5.6489 C   0  0  0  0  0  0  0  0  0  0  0  0
    4.5494    6.6137   -4.8276 C   0  0  1  0  0  0  0  0  0  0  0  0
    4.5095    8.0173   -4.8763 O   0  0  0  0  0  0  0  0  0  0  0  0
    5.4569    8.3927   -3.9193 C   0  0  1  0  0  0  0  0  0  0  0  0
    5.2445    9.7668   -3.5507 N   0  0  0  0  0  0  0  0  0  0  0  0
    4.9105   10.7533   -4.3873 C   0  0  0  0  0  0  0  0  0  0  0  0
    4.7987   11.9322   -3.6439 C   0  0  0  0  0  0  0  0  0  0  0  0
    5.0802   11.5890   -2.3500 C   0  0  0  0  0  0  0  0  0  0  0  0
    5.1122   12.4356   -1.1352 C   0  0  0  0  0  0  0  0  0  0  0  0
    4.7764   13.7813   -1.2323 C   0  0  0  0  0  0  0  0  0  0  0  0
    4.7857   14.6202   -0.1460 C   0  0  0  0  0  0  0  0  0  0  0  0
    5.1331   14.1517    1.0974 C   0  0  0  0  0  0  0  0  0  0  0  0
    5.4682   12.8194    1.2074 C   0  0  0  0  0  0  0  0  0  0  0  0
    5.4601   11.9601    0.1021 C   0  0  0  0  0  0  0  0  0  0  0  0
    5.7946   10.6632    0.2526 F   0  0  0  0  0  0  0  0  0  0  0  0
    5.3436   10.2651   -2.3489 N   0  0  0  0  0  0  0  0  0  0  0  0
    5.2966    7.4411   -2.7629 C   0  0  0  0  0  0  0  0  0  0  0  0
    4.3946    6.3587   -3.3568 C   0  0  1  0  0  0  0  0  0  0  0  0
    3.1013    6.6535   -2.9782 O   0  0  0  0  0  0  0  0  0  0  0  0
  1  2  1  0
  2  3  1  0
  2  4  1  0
  4  5  2  0
  4  6  1  0
  6  7  1  0
  8  7  1  6
  8  9  1  0
  9 10  1  0
 10 11  1  1
 11 12  1  0
 12 13  2  0
 13 14  1  0
 14 15  1  0
 15 16  2  0
 16 17  1  0
 17 18  2  0
 18 19  1  0
 19 20  2  0
 20 21  1  0
 14 22  2  0
 10 23  1  0
 23 24  1  0
 24 25  1  1
 24  8  1  0
 22 11  1  0
 20 15  1  0
M  END
$$$$
