protein_ligand_1
     RDKit          3D

 25 27  0  0  0  0  0  0  0  0999 V2000
    3.3005    1.5131   -5.1222 C   0  0  0  0  0  0  0  0  0  0  0  0
    4.5310    1.2923   -4.2760 C   0  0  0  0  0  0  0  0  0  0  0  0
    4.0913    0.7178   -2.9390 C   0  0  0  0  0  0  0  0  0  0  0  0
    5.2745    2.5244   -4.0065 C   0  0  0  0  0  0  0  0  0  0  0  0
    6.4726    2.4339   -3.6378 O   0  0  0  0  0  0  0  0  0  0  0  0
    4.7603    3.8008   -4.1256 O   0  0  0  0  0  0  0  0  0  0  0  0
    5.3506    4.8179   -4.8926 C   0  0  0  0  0  0  0  0  0  0  0  0
    4.5618    6.0964   -4.8999 C   0  0  1  0  0  0  0  0  0  0  0  0
    4.8098    6.7353   -3.6734 O   0  0  0  0  0  0  0  0  0  0  0  0
    4.2362    7.9973   -3.8540 C   0  0  1  0  0  0  0  0  0  0  0  0
    4.7584    8.9046   -2.8674 N   0  0  0  0  0  0  0  0  0  0  0  0
    5.6805    8.6065   -1.9479 C   0  0  0  0  0  0  0  0  0  0  0  0
    5.9162    9.7532   -1.1834 C   0  0  0  0  0  0  0  0  0  0  0  0
    5.0971   10.7216   -1.6957 C   0  0  0  0  0  0  0  0  0  0  0  0
    4.9280   12.1323   -1.2773 C   0  0  0  0  0  0  0  0  0  0  0  0
    4.2979   13.0274   -2.1345 C   0  0  0  0  0  0  0  0  0  0  0  0
    4.1095   14.3472   -1.8080 C   0  0  0  0  0  0  0  0  0  0  0  0
    4.5443   14.8389   -0.6016 C   0  0  0  0  0  0  0  0  0  0  0  0
    5.1705   13.9619    0.2575 C   0  0  0  0  0  0  0  0  0  0  0  0
    5.3649   12.6150   -0.0713 C   0  0  0  0  0  0  0  0  0  0  0  0
    5.9822   11.7900    0.7975 F   0  0  0  0  0  0  0  0  0  0  0  0
    4.4169   10.1547   -2.7145 N   0  0  0  0  0  0  0  0  0  0  0  0
    4.5560    8.4142   -5.2655 C   0  0  0  0  0  0  0  0  0  0  0  0
    5.0742    7.1127   -5.8781 C   0  0  1  0  0  0  0  0  0  0  0  0
    6.4515    7.1520   -5.8128 O   0  0  0  0  0  0  0  0  0  0  0  0
  1  2  1  0
  2  3  1  0
  2  4  1  0
  4  5  2  0
  4  6  1  0
  6  7  1  0
  8  7  1  1
  8  9  1  0
  9 10  1  0
 10 11  1  1
 11 12  1  0
 12 13  2  0
 13 14  1  0
 14 15  1  0
 15 16  2  0
 16 17  1  0
 17 18  2  0
 18 19  1  0
 19 20  2  0
 20 21  1  0
 14 22  2  0
 10 23  1  0
 23 24  1  0
 24 25  1  1
 24  8  1  0
 22 11  1  0
 20 15  1  0
M  END
$$$$
