protein_ligand_1
     RDKit          3D

 25 27  0  0  0  0  0  0  0  0999 V2000
    6.5518   11.4287   -6.2727 C   0  0  0  0  0  0  0  0  0  0  0  0
    6.0777   11.9488   -4.9371 C   0  0  0  0  0  0  0  0  0  0  0  0
    7.0451   13.0273   -4.4767 C   0  0  0  0  0  0  0  0  0  0  0  0
    6.0357   10.9177   -3.8985 C   0  0  0  0  0  0  0  0  0  0  0  0
    7.1163   10.5544   -3.3694 O   0  0  0  0  0  0  0  0  0  0  0  0
    4.8874   10.2998   -3.4432 O   0  0  0  0  0  0  0  0  0  0  0  0
    4.8758    9.0953   -2.7219 C   0  0  0  0  0  0  0  0  0  0  0  0
    3.8006    8.1435   -3.1635 C   0  0  1  0  0  0  0  0  0  0  0  0
    4.1165    7.7521   -4.4753 O   0  0  0  0  0  0  0  0  0  0  0  0
    3.2144    6.7124   -4.7196 C   0  0  1  0  0  0  0  0  0  0  0  0
    3.6728    5.9362   -5.8405 N   0  0  0  0  0  0  0  0  0  0  0  0
    4.7247    5.1126   -5.8377 C   0  0  0  0  0  0  0  0  0  0  0  0
    4.8376    4.5500   -7.1127 C   0  0  0  0  0  0  0  0  0  0  0  0
    3.8134    5.0790   -7.8492 C   0  0  0  0  0  0  0  0  0  0  0  0
    3.4476    4.8396   -9.2643 C   0  0  0  0  0  0  0  0  0  0  0  0
    3.8835    3.6797   -9.8949 C   0  0  0  0  0  0  0  0  0  0  0  0
    3.5798    3.3974  -11.2034 C   0  0  0  0  0  0  0  0  0  0  0  0
    2.8213    4.2661  -11.9492 C   0  0  0  0  0  0  0  0  0  0  0  0
    2.3828    5.4198  -11.3359 C   0  0  0  0  0  0  0  0  0  0  0  0
    2.6900    5.7118  -10.0016 C   0  0  0  0  0  0  0  0  0  0  0  0
    2.2414    6.8516   -9.4391 F   0  0  0  0  0  0  0  0  0  0  0  0
    3.1379    5.9130   -7.0305 N   0  0  0  0  0  0  0  0  0  0  0  0
    3.1278    5.9134   -3.4458 C   0  0  0  0  0  0  0  0  0  0  0  0
    3.8291    6.8282   -2.4414 C   0  0  1  0  0  0  0  0  0  0  0  0
    5.1347    6.3948   -2.3382 O   0  0  0  0  0  0  0  0  0  0  0  0
  1  2  1  0
  2  3  1  0
  2  4  1  0
  4  5  2  0
  4  6  1  0
  6  7  1  0
  8  7  1  1
  8  9  1  0
  9 10  1  0
 10 11  1  6
 11 12  1  0
 12 13  2  0
 13 14  1  0
 14 15  1  0
 15 16  2  0
 16 17  1  0
 17 18  2  0
 18 19  1  0
 19 20  2  0
 20 21  1  0
 14 22  2  0
 10 23  1  0
 23 24  1  0
 24 25  1  6
 24  8  1  0
 22 11  1  0
 20 15  1  0
M  END
$$$$
