protein_ligand_1
     RDKit          3D

 23 24  0  0  0  0  0  0  0  0999 V2000
    8.0514    8.8539   -4.3765 C   0  0  0  0  0  0  0  0  0  0  0  0
    7.8903   10.0988   -3.4876 C   0  0  0  0  0  0  0  0  0  0  0  0
    9.0494   10.2369   -2.5610 C   0  0  0  0  0  0  0  0  0  0  0  0
    7.8127   11.2665   -4.4269 C   0  0  0  0  0  0  0  0  0  0  0  0
    6.5693    9.9902   -2.7264 C   0  0  1  0  0  0  0  0  0  0  0  0
    6.3489   11.1796   -1.9453 N   0  0  0  0  0  0  0  0  0  0  0  0
    5.8892   11.0290   -0.5863 C   0  0  0  0  0  0  0  0  0  0  0  0
    5.7175    9.8651   -0.1329 O   0  0  0  0  0  0  0  0  0  0  0  0
    5.6439   12.2448    0.2061 C   0  0  0  0  0  0  0  0  0  0  0  0
    4.3440   12.6930    0.0431 F   0  0  0  0  0  0  0  0  0  0  0  0
    5.7633   11.9193    1.5619 F   0  0  0  0  0  0  0  0  0  0  0  0
    6.4999   13.2687   -0.1158 F   0  0  0  0  0  0  0  0  0  0  0  0
    5.5167    9.7437   -3.7060 C   0  0  0  0  0  0  0  0  0  0  0  0
    5.1935   10.7593   -4.4242 O   0  0  0  0  0  0  0  0  0  0  0  0
    4.8265    8.5403   -3.9487 N   0  0  0  0  0  0  0  0  0  0  0  0
    4.9733    7.2576   -3.2881 C   0  0  0  0  0  0  0  0  0  0  0  0
    4.4922    6.2553   -4.3196 C   0  0  0  0  0  0  0  0  0  0  0  0
    3.5960    7.0212   -5.2034 C   0  0  0  0  0  0  0  0  0  0  0  0
    2.6681    6.6504   -6.1351 N   0  0  0  0  0  0  0  0  0  0  0  0
    1.9539    7.5484   -6.8297 C   0  0  0  0  0  0  0  0  0  0  0  0
    2.1322    8.8955   -6.6265 C   0  0  0  0  0  0  0  0  0  0  0  0
    3.0851    9.2649   -5.6699 C   0  0  0  0  0  0  0  0  0  0  0  0
    3.8195    8.3472   -4.9558 C   0  0  0  0  0  0  0  0  0  0  0  0
  1  2  1  0
  2  3  1  0
  2  4  1  0
  2  5  1  0
  5  6  1  6
  6  7  1  0
  7  8  2  0
  7  9  1  0
  9 10  1  0
  9 11  1  0
  9 12  1  0
  5 13  1  0
 13 14  2  0
 13 15  1  0
 15 16  1  0
 16 17  1  0
 17 18  1  0
 18 19  2  0
 19 20  1  0
 20 21  2  0
 21 22  1  0
 22 23  2  0
 23 15  1  0
 23 18  1  0
M  END
$$$$
