protein_ligand_2
     RDKit          3D

 17 19  0  0  0  0  0  0  0  0999 V2000
    6.7649    8.1532   -5.9302 C   0  0  0  0  0  0  0  0  0  0  0  0
    6.0101    9.1997   -6.7354 C   0  0  0  0  0  0  0  0  0  0  0  0
    4.5889    9.1981   -6.2392 C   0  0  2  0  0  0  0  0  0  0  0  0
    3.7536   10.1577   -7.0886 C   0  0  0  0  0  0  0  0  0  0  0  0
    4.4480    9.5898   -4.8375 C   0  0  0  0  0  0  0  0  0  0  0  0
    3.8066    8.8520   -3.9104 N   0  0  0  0  0  0  0  0  0  0  0  0
    3.7429    9.3184   -2.6513 C   0  0  0  0  0  0  0  0  0  0  0  0
    2.9160    8.3995   -1.3858 Cl  0  0  0  0  0  0  0  0  0  0  0  0
    4.3137   10.5281   -2.2803 C   0  0  0  0  0  0  0  0  0  0  0  0
    4.4149   11.2363   -1.1463 N   0  0  0  0  0  0  0  0  0  0  0  0
    5.0892   12.3667   -1.3542 C   0  0  0  0  0  0  0  0  0  0  0  0
    5.4365   13.4457   -0.3868 C   0  0  0  0  0  0  0  0  0  0  0  0
    4.3215   13.8897    0.4851 C   0  0  0  0  0  0  0  0  0  0  0  0
    5.4153   13.0720    1.0731 C   0  0  0  0  0  0  0  0  0  0  0  0
    5.4291   12.3716   -2.6805 C   0  0  0  0  0  0  0  0  0  0  0  0
    4.9505   11.2427   -3.2397 N   0  0  0  0  0  0  0  0  0  0  0  0
    4.9921   10.7592   -4.4490 N   0  0  0  0  0  0  0  0  0  0  0  0
  1  2  1  0
  2  3  1  0
  3  4  1  6
  3  5  1  0
  5  6  1  0
  6  7  2  0
  7  8  1  0
  7  9  1  0
  9 10  2  0
 10 11  1  0
 11 12  1  0
 12 13  1  0
 13 14  1  0
 11 15  2  0
 15 16  1  0
 16 17  1  0
 17  5  2  0
 16  9  1  0
 14 12  1  0
M  END
$$$$
