protein_ligand_4
     RDKit          3D

 22 23  0  0  0  0  0  0  0  0999 V2000
    6.6233    9.5354   -4.9899 C   0  0  0  0  0  0  0  0  0  0  0  0
    5.5126   10.3123   -4.2751 C   0  0  0  0  0  0  0  0  0  0  0  0
    4.2520   10.1820   -5.0617 C   0  0  0  0  0  0  0  0  0  0  0  0
    5.9494   11.7343   -4.2544 C   0  0  0  0  0  0  0  0  0  0  0  0
    5.3067    9.7036   -2.8690 C   0  0  2  0  0  0  0  0  0  0  0  0
    4.6159    8.4360   -3.2106 N   0  0  0  0  0  0  0  0  0  0  0  0
    4.9991    7.2514   -2.5758 C   0  0  0  0  0  0  0  0  0  0  0  0
    6.0361    7.1522   -1.8623 O   0  0  0  0  0  0  0  0  0  0  0  0
    4.1424    6.0534   -2.7514 C   0  0  0  0  0  0  0  0  0  0  0  0
    4.1628    5.6997   -4.1037 F   0  0  0  0  0  0  0  0  0  0  0  0
    4.5981    5.0583   -1.9412 F   0  0  0  0  0  0  0  0  0  0  0  0
    2.8380    6.3836   -2.4158 F   0  0  0  0  0  0  0  0  0  0  0  0
    4.3639   10.4898   -2.0597 C   0  0  0  0  0  0  0  0  0  0  0  0
    3.1463   10.4905   -2.4831 O   0  0  0  0  0  0  0  0  0  0  0  0
    4.6254   11.2278   -0.8945 N   0  0  0  0  0  0  0  0  0  0  0  0
    6.0362   11.3286   -0.4509 C   0  0  0  0  0  0  0  0  0  0  0  0
    6.1701   12.5181    0.4570 C   0  0  0  0  0  0  0  0  0  0  0  0
    5.4204   12.2393    1.7637 C   0  0  0  0  0  0  0  0  0  0  0  0
    4.0836   11.6404    1.3923 C   0  0  0  0  0  0  0  0  0  0  0  0
    3.7237   11.9506   -0.0627 C   0  0  0  0  0  0  0  0  0  0  0  0
    4.0407   13.4482   -0.2268 C   0  0  0  0  0  0  0  0  0  0  0  0
    5.4971   13.7418   -0.1301 C   0  0  0  0  0  0  0  0  0  0  0  0
  1  2  1  0
  2  3  1  0
  2  4  1  0
  2  5  1  0
  5  6  1  6
  6  7  1  0
  7  8  2  0
  7  9  1  0
  9 10  1  0
  9 11  1  0
  9 12  1  0
  5 13  1  0
 13 14  2  0
 13 15  1  0
 15 16  1  0
 16 17  1  0
 17 18  1  0
 18 19  1  0
 19 20  1  0
 20 21  1  0
 21 22  1  0
 20 15  1  0
 22 17  1  0
M  END
$$$$
