protein_ligand_4
     RDKit          3D

 24 25  0  0  0  0  0  0  0  0999 V2000
    8.8802   11.5115   -1.4201 C   0  0  0  0  0  0  0  0  0  0  0  0
    7.9171   11.5304   -2.6185 C   0  0  0  0  0  0  0  0  0  0  0  0
    8.6747   10.9311   -3.7618 C   0  0  0  0  0  0  0  0  0  0  0  0
    7.6214   12.9788   -2.9365 C   0  0  0  0  0  0  0  0  0  0  0  0
    6.6530   10.7609   -2.2508 C   0  0  1  0  0  0  0  0  0  0  0  0
    5.9992   11.3877   -1.1619 N   0  0  0  0  0  0  0  0  0  0  0  0
    5.3328   10.6219   -0.1342 C   0  0  0  0  0  0  0  0  0  0  0  0
    5.4966    9.3793   -0.1025 O   0  0  0  0  0  0  0  0  0  0  0  0
    4.4704   11.2603    0.8721 C   0  0  0  0  0  0  0  0  0  0  0  0
    3.5879   12.1680    0.2706 F   0  0  0  0  0  0  0  0  0  0  0  0
    5.2617   11.9621    1.7547 F   0  0  0  0  0  0  0  0  0  0  0  0
    3.7686   10.3273    1.6141 F   0  0  0  0  0  0  0  0  0  0  0  0
    5.8697   10.3596   -3.4148 C   0  0  0  0  0  0  0  0  0  0  0  0
    4.8792   11.1611   -3.6424 O   0  0  0  0  0  0  0  0  0  0  0  0
    6.0067    9.2882   -4.2992 N   0  0  0  0  0  0  0  0  0  0  0  0
    7.0333    8.2810   -4.2613 C   0  0  0  0  0  0  0  0  0  0  0  0
    6.2652    6.9682   -3.9801 C   0  0  0  0  0  0  0  0  0  0  0  0
    5.4326    6.7509   -5.1141 O   0  0  0  0  0  0  0  0  0  0  0  0
    4.7765    7.7734   -5.7494 C   0  0  0  0  0  0  0  0  0  0  0  0
    3.8665    7.5738   -6.7506 C   0  0  0  0  0  0  0  0  0  0  0  0
    3.2205    8.6557   -7.3696 C   0  0  0  0  0  0  0  0  0  0  0  0
    3.5089    9.9449   -6.9613 C   0  0  0  0  0  0  0  0  0  0  0  0
    4.4362   10.1535   -5.9414 C   0  0  0  0  0  0  0  0  0  0  0  0
    5.0422    9.0790   -5.3634 C   0  0  0  0  0  0  0  0  0  0  0  0
  1  2  1  0
  2  3  1  0
  2  4  1  0
  2  5  1  0
  5  6  1  1
  6  7  1  0
  7  8  2  0
  7  9  1  0
  9 10  1  0
  9 11  1  0
  9 12  1  0
  5 13  1  0
 13 14  2  0
 13 15  1  0
 15 16  1  0
 16 17  1  0
 17 18  1  0
 18 19  1  0
 19 20  2  0
 20 21  1  0
 21 22  2  0
 22 23  1  0
 23 24  2  0
 24 15  1  0
 24 19  1  0
M  END
$$$$
