protein_ligand_2
     RDKit          3D

 22 23  0  0  0  0  0  0  0  0999 V2000
    6.4352   10.2022   -5.2172 C   0  0  0  0  0  0  0  0  0  0  0  0
    6.9373    9.6937   -3.8367 C   0  0  0  0  0  0  0  0  0  0  0  0
    7.7934    8.5314   -4.1303 C   0  0  0  0  0  0  0  0  0  0  0  0
    7.8523   10.8142   -3.3630 C   0  0  0  0  0  0  0  0  0  0  0  0
    5.7093    9.5159   -3.0211 C   0  0  2  0  0  0  0  0  0  0  0  0
    4.8681    8.5302   -3.6819 N   0  0  0  0  0  0  0  0  0  0  0  0
    3.9842    7.6163   -3.0830 C   0  0  0  0  0  0  0  0  0  0  0  0
    3.9170    7.4605   -1.8628 O   0  0  0  0  0  0  0  0  0  0  0  0
    3.0641    6.7725   -3.9237 C   0  0  0  0  0  0  0  0  0  0  0  0
    2.1641    7.5784   -4.5514 F   0  0  0  0  0  0  0  0  0  0  0  0
    2.4399    5.8286   -3.1689 F   0  0  0  0  0  0  0  0  0  0  0  0
    3.8740    6.1221   -4.8381 F   0  0  0  0  0  0  0  0  0  0  0  0
    5.0004   10.7170   -2.5734 C   0  0  0  0  0  0  0  0  0  0  0  0
    3.9137   11.0851   -3.1621 O   0  0  0  0  0  0  0  0  0  0  0  0
    5.3553   11.5825   -1.5148 N   0  0  0  0  0  0  0  0  0  0  0  0
    6.4230   11.3970   -0.5601 C   0  0  0  0  0  0  0  0  0  0  0  0
    5.7967   11.8500    0.7870 C   0  0  0  0  0  0  0  0  0  0  0  0
    4.3276   11.4952    0.7348 C   0  0  0  0  0  0  0  0  0  0  0  0
    3.5938   12.4654   -0.1836 C   0  0  0  0  0  0  0  0  0  0  0  0
    4.6010   12.8395   -1.2797 C   0  0  0  0  0  0  0  0  0  0  0  0
    5.5855   13.8054   -0.6845 C   0  0  0  0  0  0  0  0  0  0  0  0
    5.8983   13.3759    0.7463 C   0  0  0  0  0  0  0  0  0  0  0  0
  1  2  1  0
  2  3  1  0
  2  4  1  0
  2  5  1  0
  5  6  1  6
  6  7  1  0
  7  8  2  0
  7  9  1  0
  9 10  1  0
  9 11  1  0
  9 12  1  0
  5 13  1  0
 13 14  2  0
 13 15  1  0
 15 16  1  0
 16 17  1  0
 17 18  1  0
 18 19  1  0
 19 20  1  0
 20 21  1  0
 21 22  1  0
 20 15  1  0
 22 17  1  0
M  END
$$$$
