protein_ligand_2
     RDKit          3D

 22 23  0  0  0  0  0  0  0  0999 V2000
    7.3993   11.5160   -3.2393 C   0  0  0  0  0  0  0  0  0  0  0  0
    6.8136   10.1944   -3.8112 C   0  0  0  0  0  0  0  0  0  0  0  0
    6.6002   10.4446   -5.2471 C   0  0  0  0  0  0  0  0  0  0  0  0
    7.9758    9.2181   -3.6957 C   0  0  0  0  0  0  0  0  0  0  0  0
    5.6545    9.8769   -2.9393 C   0  0  2  0  0  0  0  0  0  0  0  0
    4.9999    8.6927   -3.4730 N   0  0  0  0  0  0  0  0  0  0  0  0
    4.7422    7.4813   -2.8087 C   0  0  0  0  0  0  0  0  0  0  0  0
    5.4051    7.1001   -1.8428 O   0  0  0  0  0  0  0  0  0  0  0  0
    3.6232    6.5805   -3.2580 C   0  0  0  0  0  0  0  0  0  0  0  0
    2.4964    7.3221   -3.4427 F   0  0  0  0  0  0  0  0  0  0  0  0
    3.4135    5.5774   -2.3635 F   0  0  0  0  0  0  0  0  0  0  0  0
    4.0466    6.0121   -4.4465 F   0  0  0  0  0  0  0  0  0  0  0  0
    4.7424   10.9663   -2.5829 C   0  0  0  0  0  0  0  0  0  0  0  0
    3.9397   11.4543   -3.4663 O   0  0  0  0  0  0  0  0  0  0  0  0
    4.6010   11.5950   -1.3257 N   0  0  0  0  0  0  0  0  0  0  0  0
    3.7471   12.7146   -1.0041 C   0  0  0  0  0  0  0  0  0  0  0  0
    4.6274   13.5957   -0.0762 C   0  0  0  0  0  0  0  0  0  0  0  0
    6.0586   13.4327   -0.5366 C   0  0  0  0  0  0  0  0  0  0  0  0
    6.5874   12.0691   -0.1078 C   0  0  0  0  0  0  0  0  0  0  0  0
    5.3789   11.1240   -0.1522 C   0  0  0  0  0  0  0  0  0  0  0  0
    4.5272   11.4153    1.0503 C   0  0  0  0  0  0  0  0  0  0  0  0
    4.5098   12.9222    1.2922 C   0  0  0  0  0  0  0  0  0  0  0  0
  1  2  1  0
  2  3  1  0
  2  4  1  0
  2  5  1  0
  5  6  1  6
  6  7  1  0
  7  8  2  0
  7  9  1  0
  9 10  1  0
  9 11  1  0
  9 12  1  0
  5 13  1  0
 13 14  2  0
 13 15  1  0
 15 16  1  0
 16 17  1  0
 17 18  1  0
 18 19  1  0
 19 20  1  0
 20 21  1  0
 21 22  1  0
 20 15  1  0
 22 17  1  0
M  END
$$$$
