protein_ligand_2
     RDKit          3D

 23 24  0  0  0  0  0  0  0  0999 V2000
    7.3093   12.9221   -3.3001 C   0  0  0  0  0  0  0  0  0  0  0  0
    7.2567   11.5930   -3.9719 C   0  0  0  0  0  0  0  0  0  0  0  0
    6.1981   11.4306   -5.0049 C   0  0  0  0  0  0  0  0  0  0  0  0
    8.6022   11.4088   -4.6819 C   0  0  0  0  0  0  0  0  0  0  0  0
    7.1454   10.4724   -2.9369 C   0  0  1  0  0  0  0  0  0  0  0  0
    8.2322   10.5324   -2.0000 N   0  0  0  0  0  0  0  0  0  0  0  0
    8.9270    9.3343   -1.5834 C   0  0  0  0  0  0  0  0  0  0  0  0
    8.6337    8.2793   -2.1804 O   0  0  0  0  0  0  0  0  0  0  0  0
    9.9306    9.3500   -0.5107 C   0  0  0  0  0  0  0  0  0  0  0  0
    9.8451   10.5567    0.1545 F   0  0  0  0  0  0  0  0  0  0  0  0
   11.1849    9.2638   -1.0841 F   0  0  0  0  0  0  0  0  0  0  0  0
    9.7437    8.3175    0.3849 F   0  0  0  0  0  0  0  0  0  0  0  0
    5.8022   10.3896   -2.3543 C   0  0  0  0  0  0  0  0  0  0  0  0
    5.5039   11.2694   -1.4594 O   0  0  0  0  0  0  0  0  0  0  0  0
    4.7962    9.4524   -2.6631 N   0  0  0  0  0  0  0  0  0  0  0  0
    4.8476    8.3721   -3.6114 C   0  0  0  0  0  0  0  0  0  0  0  0
    3.4009    8.0202   -3.9179 C   0  0  0  0  0  0  0  0  0  0  0  0
    2.6718    8.5847   -2.7827 C   0  0  0  0  0  0  0  0  0  0  0  0
    1.3883    8.3873   -2.4082 N   0  0  0  0  0  0  0  0  0  0  0  0
    0.8353    8.9705   -1.3374 C   0  0  0  0  0  0  0  0  0  0  0  0
    1.6388    9.8086   -0.5991 C   0  0  0  0  0  0  0  0  0  0  0  0
    2.9493   10.0354   -0.9470 C   0  0  0  0  0  0  0  0  0  0  0  0
    3.5057    9.4146   -2.0709 C   0  0  0  0  0  0  0  0  0  0  0  0
  1  2  1  0
  2  3  1  0
  2  4  1  0
  2  5  1  0
  5  6  1  1
  6  7  1  0
  7  8  2  0
  7  9  1  0
  9 10  1  0
  9 11  1  0
  9 12  1  0
  5 13  1  0
 13 14  2  0
 13 15  1  0
 15 16  1  0
 16 17  1  0
 17 18  1  0
 18 19  2  0
 19 20  1  0
 20 21  2  0
 21 22  1  0
 22 23  2  0
 23 15  1  0
 23 18  1  0
M  END
$$$$
