protein_ligand_2
     RDKit          3D

 23 24  0  0  0  0  0  0  0  0999 V2000
    4.7492    7.6596   -5.6279 C   0  0  0  0  0  0  0  0  0  0  0  0
    6.2291    7.6062   -5.4606 C   0  0  0  0  0  0  0  0  0  0  0  0
    6.8799    6.3273   -5.8545 C   0  0  0  0  0  0  0  0  0  0  0  0
    6.8107    8.6977   -6.3654 C   0  0  0  0  0  0  0  0  0  0  0  0
    6.6205    7.9653   -4.0263 C   0  0  1  0  0  0  0  0  0  0  0  0
    8.0456    7.9120   -3.8570 N   0  0  0  0  0  0  0  0  0  0  0  0
    8.6455    7.9854   -2.5430 C   0  0  0  0  0  0  0  0  0  0  0  0
    7.8733    7.8939   -1.5679 O   0  0  0  0  0  0  0  0  0  0  0  0
   10.0923    8.1587   -2.3568 C   0  0  0  0  0  0  0  0  0  0  0  0
   10.4174    9.4720   -2.6322 F   0  0  0  0  0  0  0  0  0  0  0  0
   10.7499    7.3537   -3.2673 F   0  0  0  0  0  0  0  0  0  0  0  0
   10.4874    7.8474   -1.0723 F   0  0  0  0  0  0  0  0  0  0  0  0
    5.9671    9.1952   -3.5667 C   0  0  0  0  0  0  0  0  0  0  0  0
    6.4912   10.3086   -3.9532 O   0  0  0  0  0  0  0  0  0  0  0  0
    4.8261    9.2979   -2.7461 N   0  0  0  0  0  0  0  0  0  0  0  0
    3.9570    8.2443   -2.2951 C   0  0  0  0  0  0  0  0  0  0  0  0
    2.6549    8.9217   -1.8995 C   0  0  0  0  0  0  0  0  0  0  0  0
    3.0498   10.3162   -1.7030 C   0  0  0  0  0  0  0  0  0  0  0  0
    2.3579   11.3279   -1.1337 N   0  0  0  0  0  0  0  0  0  0  0  0
    2.8369   12.5725   -1.0145 C   0  0  0  0  0  0  0  0  0  0  0  0
    4.1011   12.8039   -1.5058 C   0  0  0  0  0  0  0  0  0  0  0  0
    4.8369   11.8014   -2.0919 C   0  0  0  0  0  0  0  0  0  0  0  0
    4.3153   10.5079   -2.2054 C   0  0  0  0  0  0  0  0  0  0  0  0
  1  2  1  0
  2  3  1  0
  2  4  1  0
  2  5  1  0
  5  6  1  6
  6  7  1  0
  7  8  2  0
  7  9  1  0
  9 10  1  0
  9 11  1  0
  9 12  1  0
  5 13  1  0
 13 14  2  0
 13 15  1  0
 15 16  1  0
 16 17  1  0
 17 18  1  0
 18 19  2  0
 19 20  1  0
 20 21  2  0
 21 22  1  0
 22 23  2  0
 23 15  1  0
 23 18  1  0
M  END
$$$$
