protein_ligand_2
     RDKit          3D

 23 24  0  0  0  0  0  0  0  0999 V2000
    7.9127   11.3642   -1.6320 C   0  0  0  0  0  0  0  0  0  0  0  0
    7.2035   11.1371   -2.9229 C   0  0  0  0  0  0  0  0  0  0  0  0
    5.8258   11.6922   -3.0117 C   0  0  0  0  0  0  0  0  0  0  0  0
    8.0340   11.8338   -4.0060 C   0  0  0  0  0  0  0  0  0  0  0  0
    7.1842    9.6475   -3.2698 C   0  0  1  0  0  0  0  0  0  0  0  0
    8.5051    9.0886   -3.1967 N   0  0  0  0  0  0  0  0  0  0  0  0
    8.8494    7.8866   -3.9236 C   0  0  0  0  0  0  0  0  0  0  0  0
    8.0507    7.5171   -4.8072 O   0  0  0  0  0  0  0  0  0  0  0  0
   10.0777    7.1318   -3.6416 C   0  0  0  0  0  0  0  0  0  0  0  0
   10.5766    7.5426   -2.4216 F   0  0  0  0  0  0  0  0  0  0  0  0
   11.0119    7.4384   -4.6126 F   0  0  0  0  0  0  0  0  0  0  0  0
    9.8509    5.7714   -3.6107 F   0  0  0  0  0  0  0  0  0  0  0  0
    6.1413    8.9228   -2.5364 C   0  0  0  0  0  0  0  0  0  0  0  0
    6.4348    8.5387   -1.3406 O   0  0  0  0  0  0  0  0  0  0  0  0
    4.8487    8.5969   -2.9935 N   0  0  0  0  0  0  0  0  0  0  0  0
    3.7431    8.0740   -2.2364 C   0  0  0  0  0  0  0  0  0  0  0  0
    2.8084    7.4384   -3.2529 C   0  0  0  0  0  0  0  0  0  0  0  0
    3.2091    8.0639   -4.5127 C   0  0  0  0  0  0  0  0  0  0  0  0
    2.5839    8.0492   -5.7107 N   0  0  0  0  0  0  0  0  0  0  0  0
    3.0607    8.6676   -6.7983 C   0  0  0  0  0  0  0  0  0  0  0  0
    4.2503    9.3450   -6.6593 C   0  0  0  0  0  0  0  0  0  0  0  0
    4.9169    9.3836   -5.4576 C   0  0  0  0  0  0  0  0  0  0  0  0
    4.3990    8.7296   -4.3342 C   0  0  0  0  0  0  0  0  0  0  0  0
  1  2  1  0
  2  3  1  0
  2  4  1  0
  2  5  1  0
  5  6  1  1
  6  7  1  0
  7  8  2  0
  7  9  1  0
  9 10  1  0
  9 11  1  0
  9 12  1  0
  5 13  1  0
 13 14  2  0
 13 15  1  0
 15 16  1  0
 16 17  1  0
 17 18  1  0
 18 19  2  0
 19 20  1  0
 20 21  2  0
 21 22  1  0
 22 23  2  0
 23 15  1  0
 23 18  1  0
M  END
$$$$
