protein_ligand_2
     RDKit          3D

 23 24  0  0  0  0  0  0  0  0999 V2000
    5.5197   11.5947   -4.2165 C   0  0  0  0  0  0  0  0  0  0  0  0
    4.9430   10.3199   -3.7038 C   0  0  0  0  0  0  0  0  0  0  0  0
    4.1133   10.4325   -2.4737 C   0  0  0  0  0  0  0  0  0  0  0  0
    4.0288    9.7786   -4.8082 C   0  0  0  0  0  0  0  0  0  0  0  0
    6.0440    9.2797   -3.4914 C   0  0  1  0  0  0  0  0  0  0  0  0
    6.9559    9.7029   -2.4658 N   0  0  0  0  0  0  0  0  0  0  0  0
    8.3861    9.6750   -2.6792 C   0  0  0  0  0  0  0  0  0  0  0  0
    8.7768    9.3684   -3.8232 O   0  0  0  0  0  0  0  0  0  0  0  0
    9.3391    9.9912   -1.6068 C   0  0  0  0  0  0  0  0  0  0  0  0
    9.8396   11.2597   -1.8225 F   0  0  0  0  0  0  0  0  0  0  0  0
   10.3903    9.0970   -1.6783 F   0  0  0  0  0  0  0  0  0  0  0  0
    8.7496    9.9356   -0.3609 F   0  0  0  0  0  0  0  0  0  0  0  0
    5.5033    7.9242   -3.3472 C   0  0  0  0  0  0  0  0  0  0  0  0
    4.6844    7.7284   -2.3701 O   0  0  0  0  0  0  0  0  0  0  0  0
    5.7793    6.8062   -4.1594 N   0  0  0  0  0  0  0  0  0  0  0  0
    6.5922    6.7468   -5.3446 C   0  0  0  0  0  0  0  0  0  0  0  0
    6.1510    5.4961   -6.0876 C   0  0  0  0  0  0  0  0  0  0  0  0
    5.4844    4.7089   -5.0508 C   0  0  0  0  0  0  0  0  0  0  0  0
    5.0921    3.4160   -5.0796 N   0  0  0  0  0  0  0  0  0  0  0  0
    4.4846    2.8074   -4.0534 C   0  0  0  0  0  0  0  0  0  0  0  0
    4.2614    3.5617   -2.9245 C   0  0  0  0  0  0  0  0  0  0  0  0
    4.6455    4.8799   -2.8559 C   0  0  0  0  0  0  0  0  0  0  0  0
    5.2790    5.4949   -3.9414 C   0  0  0  0  0  0  0  0  0  0  0  0
  1  2  1  0
  2  3  1  0
  2  4  1  0
  2  5  1  0
  5  6  1  1
  6  7  1  0
  7  8  2  0
  7  9  1  0
  9 10  1  0
  9 11  1  0
  9 12  1  0
  5 13  1  0
 13 14  2  0
 13 15  1  0
 15 16  1  0
 16 17  1  0
 17 18  1  0
 18 19  2  0
 19 20  1  0
 20 21  2  0
 21 22  1  0
 22 23  2  0
 23 15  1  0
 23 18  1  0
M  END
$$$$
