protein_ligand_2
     RDKit          3D

 22 23  0  0  0  0  0  0  0  0999 V2000
    6.3468   10.4645   -5.1332 C   0  0  0  0  0  0  0  0  0  0  0  0
    6.8371    9.8421   -3.7957 C   0  0  0  0  0  0  0  0  0  0  0  0
    7.5732    8.6230   -4.1726 C   0  0  0  0  0  0  0  0  0  0  0  0
    7.8649   10.8485   -3.2978 C   0  0  0  0  0  0  0  0  0  0  0  0
    5.6208    9.7358   -2.9508 C   0  0  2  0  0  0  0  0  0  0  0  0
    4.7452    8.7375   -3.5448 N   0  0  0  0  0  0  0  0  0  0  0  0
    3.9901    7.7548   -2.8822 C   0  0  0  0  0  0  0  0  0  0  0  0
    4.1325    7.5039   -1.6845 O   0  0  0  0  0  0  0  0  0  0  0  0
    2.9549    6.9510   -3.6225 C   0  0  0  0  0  0  0  0  0  0  0  0
    2.0416    7.7959   -4.1754 F   0  0  0  0  0  0  0  0  0  0  0  0
    2.3575    6.0470   -2.8002 F   0  0  0  0  0  0  0  0  0  0  0  0
    3.6430    6.2521   -4.5987 F   0  0  0  0  0  0  0  0  0  0  0  0
    4.9478   10.9748   -2.5540 C   0  0  0  0  0  0  0  0  0  0  0  0
    3.9584   11.4255   -3.2475 O   0  0  0  0  0  0  0  0  0  0  0  0
    5.2411   11.7968   -1.4431 N   0  0  0  0  0  0  0  0  0  0  0  0
    6.3392   11.6481   -0.5167 C   0  0  0  0  0  0  0  0  0  0  0  0
    5.6991   11.9495    0.8660 C   0  0  0  0  0  0  0  0  0  0  0  0
    4.2683   11.4634    0.8079 C   0  0  0  0  0  0  0  0  0  0  0  0
    3.4311   12.4203   -0.0328 C   0  0  0  0  0  0  0  0  0  0  0  0
    4.3786   12.9593   -1.1131 C   0  0  0  0  0  0  0  0  0  0  0  0
    5.2809   13.9708   -0.4655 C   0  0  0  0  0  0  0  0  0  0  0  0
    5.6588   13.4775    0.9285 C   0  0  0  0  0  0  0  0  0  0  0  0
  1  2  1  0
  2  3  1  0
  2  4  1  0
  2  5  1  0
  5  6  1  6
  6  7  1  0
  7  8  2  0
  7  9  1  0
  9 10  1  0
  9 11  1  0
  9 12  1  0
  5 13  1  0
 13 14  2  0
 13 15  1  0
 15 16  1  0
 16 17  1  0
 17 18  1  0
 18 19  1  0
 19 20  1  0
 20 21  1  0
 21 22  1  0
 20 15  1  0
 22 17  1  0
M  END
$$$$
