protein_ligand_2
     RDKit          3D

 22 23  0  0  0  0  0  0  0  0999 V2000
    6.4775   10.0061   -5.1940 C   0  0  0  0  0  0  0  0  0  0  0  0
    7.0435    9.5137   -3.8324 C   0  0  0  0  0  0  0  0  0  0  0  0
    7.8573    8.3269   -4.1478 C   0  0  0  0  0  0  0  0  0  0  0  0
    8.0067   10.6225   -3.4326 C   0  0  0  0  0  0  0  0  0  0  0  0
    5.8585    9.3795   -2.9478 C   0  0  2  0  0  0  0  0  0  0  0  0
    5.0377    8.2913   -3.4558 N   0  0  0  0  0  0  0  0  0  0  0  0
    4.4452    7.2488   -2.7229 C   0  0  0  0  0  0  0  0  0  0  0  0
    4.7347    7.0153   -1.5484 O   0  0  0  0  0  0  0  0  0  0  0  0
    3.4113    6.3555   -3.3544 C   0  0  0  0  0  0  0  0  0  0  0  0
    2.5677    7.1103   -4.1109 F   0  0  0  0  0  0  0  0  0  0  0  0
    2.7315    5.6506   -2.4103 F   0  0  0  0  0  0  0  0  0  0  0  0
    4.1132    5.4558   -4.1371 F   0  0  0  0  0  0  0  0  0  0  0  0
    5.1136   10.5936   -2.6061 C   0  0  0  0  0  0  0  0  0  0  0  0
    4.0806   10.9362   -3.2978 O   0  0  0  0  0  0  0  0  0  0  0  0
    5.3770   11.4984   -1.5536 N   0  0  0  0  0  0  0  0  0  0  0  0
    6.4506   11.4237   -0.5904 C   0  0  0  0  0  0  0  0  0  0  0  0
    5.7743   11.8271    0.7484 C   0  0  0  0  0  0  0  0  0  0  0  0
    4.3460   11.3338    0.6902 C   0  0  0  0  0  0  0  0  0  0  0  0
    3.5301   12.2216   -0.2421 C   0  0  0  0  0  0  0  0  0  0  0  0
    4.5050   12.6799   -1.3353 C   0  0  0  0  0  0  0  0  0  0  0  0
    5.3890   13.7403   -0.7431 C   0  0  0  0  0  0  0  0  0  0  0  0
    5.7308   13.3553    0.6937 C   0  0  0  0  0  0  0  0  0  0  0  0
  1  2  1  0
  2  3  1  0
  2  4  1  0
  2  5  1  0
  5  6  1  6
  6  7  1  0
  7  8  2  0
  7  9  1  0
  9 10  1  0
  9 11  1  0
  9 12  1  0
  5 13  1  0
 13 14  2  0
 13 15  1  0
 15 16  1  0
 16 17  1  0
 17 18  1  0
 18 19  1  0
 19 20  1  0
 20 21  1  0
 21 22  1  0
 20 15  1  0
 22 17  1  0
M  END
$$$$
