protein_ligand_2
     RDKit          3D

 22 23  0  0  0  0  0  0  0  0999 V2000
    8.0873   10.1624   -3.5063 C   0  0  0  0  0  0  0  0  0  0  0  0
    6.9389    9.4133   -4.2389 C   0  0  0  0  0  0  0  0  0  0  0  0
    6.8235   10.0585   -5.5581 C   0  0  0  0  0  0  0  0  0  0  0  0
    7.5185    8.0249   -4.4698 C   0  0  0  0  0  0  0  0  0  0  0  0
    5.7910    9.4520   -3.2978 C   0  0  2  0  0  0  0  0  0  0  0  0
    4.7027    8.6841   -3.8824 N   0  0  0  0  0  0  0  0  0  0  0  0
    3.9717    7.6415   -3.2877 C   0  0  0  0  0  0  0  0  0  0  0  0
    4.2451    7.1902   -2.1745 O   0  0  0  0  0  0  0  0  0  0  0  0
    2.8003    7.0197   -3.9998 C   0  0  0  0  0  0  0  0  0  0  0  0
    3.1030    6.8739   -5.3192 F   0  0  0  0  0  0  0  0  0  0  0  0
    1.6740    7.7634   -3.8304 F   0  0  0  0  0  0  0  0  0  0  0  0
    2.5968    5.7914   -3.3960 F   0  0  0  0  0  0  0  0  0  0  0  0
    5.3923   10.7514   -2.7515 C   0  0  0  0  0  0  0  0  0  0  0  0
    4.4823   11.4501   -3.3402 O   0  0  0  0  0  0  0  0  0  0  0  0
    5.8885   11.3871   -1.5916 N   0  0  0  0  0  0  0  0  0  0  0  0
    6.9109   10.8935   -0.6988 C   0  0  0  0  0  0  0  0  0  0  0  0
    6.3708   11.2487    0.7134 C   0  0  0  0  0  0  0  0  0  0  0  0
    4.8630   11.1538    0.6486 C   0  0  0  0  0  0  0  0  0  0  0  0
    4.3016   12.3525   -0.1070 C   0  0  0  0  0  0  0  0  0  0  0  0
    5.3561   12.7056   -1.1648 C   0  0  0  0  0  0  0  0  0  0  0  0
    6.4894   13.4005   -0.4652 C   0  0  0  0  0  0  0  0  0  0  0  0
    6.7271   12.7267    0.8834 C   0  0  0  0  0  0  0  0  0  0  0  0
  1  2  1  0
  2  3  1  0
  2  4  1  0
  2  5  1  0
  5  6  1  6
  6  7  1  0
  7  8  2  0
  7  9  1  0
  9 10  1  0
  9 11  1  0
  9 12  1  0
  5 13  1  0
 13 14  2  0
 13 15  1  0
 15 16  1  0
 16 17  1  0
 17 18  1  0
 18 19  1  0
 19 20  1  0
 20 21  1  0
 21 22  1  0
 20 15  1  0
 22 17  1  0
M  END
$$$$
