protein_ligand_2
     RDKit          3D

 23 24  0  0  0  0  0  0  0  0999 V2000
    8.9062   10.6741   -4.5930 C   0  0  0  0  0  0  0  0  0  0  0  0
    7.4964   10.9901   -4.2281 C   0  0  0  0  0  0  0  0  0  0  0  0
    7.1521   12.4363   -4.1645 C   0  0  0  0  0  0  0  0  0  0  0  0
    6.6139   10.3708   -5.3172 C   0  0  0  0  0  0  0  0  0  0  0  0
    7.1173   10.3099   -2.9116 C   0  0  1  0  0  0  0  0  0  0  0  0
    7.8957   10.8325   -1.8237 N   0  0  0  0  0  0  0  0  0  0  0  0
    8.7739    9.9784   -1.0550 C   0  0  0  0  0  0  0  0  0  0  0  0
    8.9536    8.8230   -1.4886 O   0  0  0  0  0  0  0  0  0  0  0  0
    9.4267   10.4410    0.1770 C   0  0  0  0  0  0  0  0  0  0  0  0
    9.6528    9.3497    0.9919 F   0  0  0  0  0  0  0  0  0  0  0  0
    8.5633   11.2963    0.8347 F   0  0  0  0  0  0  0  0  0  0  0  0
   10.6232   11.0770   -0.0814 F   0  0  0  0  0  0  0  0  0  0  0  0
    5.6660   10.2795   -2.7032 C   0  0  0  0  0  0  0  0  0  0  0  0
    5.1113   11.3824   -2.3297 O   0  0  0  0  0  0  0  0  0  0  0  0
    4.8052    9.1755   -2.8654 N   0  0  0  0  0  0  0  0  0  0  0  0
    5.1222    7.8674   -3.3726 C   0  0  0  0  0  0  0  0  0  0  0  0
    3.7990    7.2605   -3.8102 C   0  0  0  0  0  0  0  0  0  0  0  0
    2.8097    8.0577   -3.0857 C   0  0  0  0  0  0  0  0  0  0  0  0
    1.4885    7.8302   -2.9148 N   0  0  0  0  0  0  0  0  0  0  0  0
    0.6839    8.6466   -2.2229 C   0  0  0  0  0  0  0  0  0  0  0  0
    1.2592    9.7670   -1.6688 C   0  0  0  0  0  0  0  0  0  0  0  0
    2.5993   10.0337   -1.8200 C   0  0  0  0  0  0  0  0  0  0  0  0
    3.4209    9.1657   -2.5476 C   0  0  0  0  0  0  0  0  0  0  0  0
  1  2  1  0
  2  3  1  0
  2  4  1  0
  2  5  1  0
  5  6  1  1
  6  7  1  0
  7  8  2  0
  7  9  1  0
  9 10  1  0
  9 11  1  0
  9 12  1  0
  5 13  1  0
 13 14  2  0
 13 15  1  0
 15 16  1  0
 16 17  1  0
 17 18  1  0
 18 19  2  0
 19 20  1  0
 20 21  2  0
 21 22  1  0
 22 23  2  0
 23 15  1  0
 23 18  1  0
M  END
$$$$
