protein_ligand_3
     RDKit          3D

 23 25  0  0  0  0  0  0  0  0999 V2000
   -0.9022    6.9040   -8.1368 C   0  0  0  0  0  0  0  0  0  0  0  0
    0.4991    6.7141   -7.5617 C   0  0  0  0  0  0  0  0  0  0  0  0
    1.2205    5.7733   -8.4967 C   0  0  0  0  0  0  0  0  0  0  0  0
    1.2180    8.0177   -7.5532 C   0  0  0  0  0  0  0  0  0  0  0  0
    1.2238    8.7419   -8.5815 O   0  0  0  0  0  0  0  0  0  0  0  0
    1.8952    8.4783   -6.4391 O   0  0  0  0  0  0  0  0  0  0  0  0
    3.2857    8.5102   -6.2717 C   0  0  0  0  0  0  0  0  0  0  0  0
    3.6967    7.8741   -4.9880 C   0  0  1  0  0  0  0  0  0  0  0  0
    4.6093    6.8362   -5.2075 O   0  0  0  0  0  0  0  0  0  0  0  0
    4.8479    6.2463   -3.9745 C   0  0  1  0  0  0  0  0  0  0  0  0
    5.4887    4.9593   -4.0878 N   0  0  0  0  0  0  0  0  0  0  0  0
    6.7742    4.8092   -4.4553 C   0  0  0  0  0  0  0  0  0  0  0  0
    7.0988    3.4620   -4.4727 C   0  0  0  0  0  0  0  0  0  0  0  0
    5.9434    2.8085   -4.0970 C   0  0  0  0  0  0  0  0  0  0  0  0
    5.8147    1.3930   -3.9780 N   0  0  0  0  0  0  0  0  0  0  0  0
    5.0025    3.7431   -3.8755 N   0  0  0  0  0  0  0  0  0  0  0  0
    5.7354    7.2368   -3.2103 C   0  0  0  0  0  0  0  0  0  0  0  0
    4.8697    8.3522   -2.8835 N   0  0  0  0  0  0  0  0  0  0  0  0
    5.5931    9.4494   -2.2895 C   0  0  0  0  0  0  0  0  0  0  0  0
    5.9134   10.4025   -3.4176 C   0  0  2  0  0  0  0  0  0  0  0  0
    5.5575   11.6594   -3.0244 F   0  0  0  0  0  0  0  0  0  0  0  0
    5.1164    9.9147   -4.6203 C   0  0  0  0  0  0  0  0  0  0  0  0
    4.2053    8.8959   -4.0213 C   0  0  1  0  0  0  0  0  0  0  0  0
  1  2  1  0
  2  3  1  0
  2  4  1  0
  4  5  2  0
  4  6  1  0
  6  7  1  0
  8  7  1  6
  8  9  1  0
  9 10  1  0
 10 11  1  6
 11 12  1  0
 12 13  2  0
 13 14  1  0
 14 15  1  0
 14 16  2  0
 10 17  1  0
 17 18  1  0
 18 19  1  0
 19 20  1  0
 20 21  1  1
 20 22  1  0
 23 22  1  6
 23  8  1  0
 16 11  1  0
 23 18  1  0
M  END
$$$$
