protein_ligand_3
     RDKit          3D

 23 25  0  0  0  0  0  0  0  0999 V2000
   -0.7725    7.1056   -8.1597 C   0  0  0  0  0  0  0  0  0  0  0  0
    0.2859    7.9472   -7.4513 C   0  0  0  0  0  0  0  0  0  0  0  0
   -0.3240    8.3866   -6.1418 C   0  0  0  0  0  0  0  0  0  0  0  0
    1.4806    7.1081   -7.1598 C   0  0  0  0  0  0  0  0  0  0  0  0
    1.3930    5.8538   -7.1890 O   0  0  0  0  0  0  0  0  0  0  0  0
    2.7106    7.6594   -6.8514 O   0  0  0  0  0  0  0  0  0  0  0  0
    2.9792    8.5443   -5.7990 C   0  0  0  0  0  0  0  0  0  0  0  0
    3.4220    7.8193   -4.5744 C   0  0  1  0  0  0  0  0  0  0  0  0
    4.1743    6.6857   -4.9022 O   0  0  0  0  0  0  0  0  0  0  0  0
    4.4480    6.0293   -3.7108 C   0  0  1  0  0  0  0  0  0  0  0  0
    4.9103    4.6784   -3.9131 N   0  0  0  0  0  0  0  0  0  0  0  0
    5.4478    4.2519   -5.0703 C   0  0  0  0  0  0  0  0  0  0  0  0
    5.7934    2.9146   -4.9580 C   0  0  0  0  0  0  0  0  0  0  0  0
    5.4367    2.5574   -3.6741 C   0  0  0  0  0  0  0  0  0  0  0  0
    5.6122    1.2565   -3.1162 N   0  0  0  0  0  0  0  0  0  0  0  0
    4.9111    3.6440   -3.0819 N   0  0  0  0  0  0  0  0  0  0  0  0
    5.5176    6.8773   -3.0112 C   0  0  0  0  0  0  0  0  0  0  0  0
    4.8310    8.0783   -2.5792 N   0  0  0  0  0  0  0  0  0  0  0  0
    5.7364    9.0580   -2.0310 C   0  0  0  0  0  0  0  0  0  0  0  0
    6.0699   10.0027   -3.1623 C   0  0  2  0  0  0  0  0  0  0  0  0
    5.9106   11.2796   -2.7090 F   0  0  0  0  0  0  0  0  0  0  0  0
    5.1127    9.6574   -4.2955 C   0  0  0  0  0  0  0  0  0  0  0  0
    4.1395    8.7377   -3.6369 C   0  0  1  0  0  0  0  0  0  0  0  0
  1  2  1  0
  2  3  1  0
  2  4  1  0
  4  5  2  0
  4  6  1  0
  6  7  1  0
  8  7  1  6
  8  9  1  0
  9 10  1  0
 10 11  1  6
 11 12  1  0
 12 13  2  0
 13 14  1  0
 14 15  1  0
 14 16  2  0
 10 17  1  0
 17 18  1  0
 18 19  1  0
 19 20  1  0
 20 21  1  1
 20 22  1  0
 23 22  1  6
 23  8  1  0
 16 11  1  0
 23 18  1  0
M  END
$$$$
