protein_ligand_3
     RDKit          3D

 23 25  0  0  0  0  0  0  0  0999 V2000
    2.0916   10.6773   -5.6414 C   0  0  0  0  0  0  0  0  0  0  0  0
    2.1264   10.2448   -7.1050 C   0  0  0  0  0  0  0  0  0  0  0  0
    2.8330   11.3457   -7.8588 C   0  0  0  0  0  0  0  0  0  0  0  0
    2.9210    8.9930   -7.2387 C   0  0  0  0  0  0  0  0  0  0  0  0
    3.9560    8.9759   -7.9530 O   0  0  0  0  0  0  0  0  0  0  0  0
    2.5631    7.8213   -6.5977 O   0  0  0  0  0  0  0  0  0  0  0  0
    3.2655    6.6098   -6.6373 C   0  0  0  0  0  0  0  0  0  0  0  0
    3.4937    6.0650   -5.2689 C   0  0  1  0  0  0  0  0  0  0  0  0
    4.2785    4.9071   -5.3101 O   0  0  0  0  0  0  0  0  0  0  0  0
    4.3458    4.4234   -4.0114 C   0  0  1  0  0  0  0  0  0  0  0  0
    4.8218    3.0636   -3.9478 N   0  0  0  0  0  0  0  0  0  0  0  0
    5.6949    2.5493   -4.8327 C   0  0  0  0  0  0  0  0  0  0  0  0
    5.9592    1.2275   -4.5110 C   0  0  0  0  0  0  0  0  0  0  0  0
    5.2009    0.9720   -3.3873 C   0  0  0  0  0  0  0  0  0  0  0  0
    5.1614   -0.2789   -2.7031 N   0  0  0  0  0  0  0  0  0  0  0  0
    4.5342    2.0992   -3.0829 N   0  0  0  0  0  0  0  0  0  0  0  0
    5.2941    5.3729   -3.2684 C   0  0  0  0  0  0  0  0  0  0  0  0
    4.5577    6.6128   -3.1239 N   0  0  0  0  0  0  0  0  0  0  0  0
    5.3702    7.6699   -2.5740 C   0  0  0  0  0  0  0  0  0  0  0  0
    5.8946    8.4551   -3.7538 C   0  0  2  0  0  0  0  0  0  0  0  0
    5.6755    9.7798   -3.5122 F   0  0  0  0  0  0  0  0  0  0  0  0
    5.1335    7.9456   -4.9707 C   0  0  0  0  0  0  0  0  0  0  0  0
    4.0562    7.1122   -4.3611 C   0  0  1  0  0  0  0  0  0  0  0  0
  1  2  1  0
  2  3  1  0
  2  4  1  0
  4  5  2  0
  4  6  1  0
  6  7  1  0
  8  7  1  6
  8  9  1  0
  9 10  1  0
 10 11  1  6
 11 12  1  0
 12 13  2  0
 13 14  1  0
 14 15  1  0
 14 16  2  0
 10 17  1  0
 17 18  1  0
 18 19  1  0
 19 20  1  0
 20 21  1  1
 20 22  1  0
 23 22  1  6
 23  8  1  0
 16 11  1  0
 23 18  1  0
M  END
$$$$
