protein_ligand_3
     RDKit          3D

 23 25  0  0  0  0  0  0  0  0999 V2000
    2.4727    6.3601   -9.4129 C   0  0  0  0  0  0  0  0  0  0  0  0
    2.8843    7.7151   -8.8428 C   0  0  0  0  0  0  0  0  0  0  0  0
    2.4041    8.7556   -9.8259 C   0  0  0  0  0  0  0  0  0  0  0  0
    2.1980    7.9403   -7.5411 C   0  0  0  0  0  0  0  0  0  0  0  0
    0.9446    8.0345   -7.4965 O   0  0  0  0  0  0  0  0  0  0  0  0
    2.8936    8.0530   -6.3514 O   0  0  0  0  0  0  0  0  0  0  0  0
    2.3530    7.9393   -5.0640 C   0  0  0  0  0  0  0  0  0  0  0  0
    3.3197    7.3127   -4.1183 C   0  0  1  0  0  0  0  0  0  0  0  0
    3.9041    6.1700   -4.6761 O   0  0  0  0  0  0  0  0  0  0  0  0
    4.7011    5.6067   -3.6899 C   0  0  1  0  0  0  0  0  0  0  0  0
    5.0901    4.2519   -3.9950 N   0  0  0  0  0  0  0  0  0  0  0  0
    5.5322    3.8703   -5.2069 C   0  0  0  0  0  0  0  0  0  0  0  0
    5.8258    2.5161   -5.1899 C   0  0  0  0  0  0  0  0  0  0  0  0
    5.5380    2.1015   -3.9060 C   0  0  0  0  0  0  0  0  0  0  0  0
    5.6925    0.7653   -3.4317 N   0  0  0  0  0  0  0  0  0  0  0  0
    5.0998    3.1731   -3.2224 N   0  0  0  0  0  0  0  0  0  0  0  0
    5.9288    6.5200   -3.5828 C   0  0  0  0  0  0  0  0  0  0  0  0
    5.4458    7.7386   -2.9644 N   0  0  0  0  0  0  0  0  0  0  0  0
    6.4536    8.7696   -2.9286 C   0  0  0  0  0  0  0  0  0  0  0  0
    6.2148    9.6343   -4.1447 C   0  0  2  0  0  0  0  0  0  0  0  0
    6.2113   10.9382   -3.7434 F   0  0  0  0  0  0  0  0  0  0  0  0
    4.8755    9.1922   -4.7195 C   0  0  0  0  0  0  0  0  0  0  0  0
    4.3319    8.3081   -3.6473 C   0  0  1  0  0  0  0  0  0  0  0  0
  1  2  1  0
  2  3  1  0
  2  4  1  0
  4  5  2  0
  4  6  1  0
  6  7  1  0
  8  7  1  6
  8  9  1  0
  9 10  1  0
 10 11  1  6
 11 12  1  0
 12 13  2  0
 13 14  1  0
 14 15  1  0
 14 16  2  0
 10 17  1  0
 17 18  1  0
 18 19  1  0
 19 20  1  0
 20 21  1  1
 20 22  1  0
 23 22  1  6
 23  8  1  0
 16 11  1  0
 23 18  1  0
M  END
$$$$
