protein_ligand_3
     RDKit          3D

 23 25  0  0  0  0  0  0  0  0999 V2000
    3.5948    6.7941   -8.6127 C   0  0  0  0  0  0  0  0  0  0  0  0
    2.1911    7.3901   -8.5444 C   0  0  0  0  0  0  0  0  0  0  0  0
    1.3445    6.6011   -9.5142 C   0  0  0  0  0  0  0  0  0  0  0  0
    1.6362    7.2093   -7.1748 C   0  0  0  0  0  0  0  0  0  0  0  0
    0.4617    6.7867   -7.0206 O   0  0  0  0  0  0  0  0  0  0  0  0
    2.3718    7.4919   -6.0387 O   0  0  0  0  0  0  0  0  0  0  0  0
    1.9850    7.2318   -4.7176 C   0  0  0  0  0  0  0  0  0  0  0  0
    3.1219    6.7099   -3.9075 C   0  0  1  0  0  0  0  0  0  0  0  0
    3.6668    5.5573   -4.4845 O   0  0  0  0  0  0  0  0  0  0  0  0
    4.6398    5.0943   -3.6104 C   0  0  1  0  0  0  0  0  0  0  0  0
    5.0435    3.7392   -3.8940 N   0  0  0  0  0  0  0  0  0  0  0  0
    5.4335    3.3296   -5.1147 C   0  0  0  0  0  0  0  0  0  0  0  0
    5.7579    1.9829   -5.0720 C   0  0  0  0  0  0  0  0  0  0  0  0
    5.5434    1.6024   -3.7634 C   0  0  0  0  0  0  0  0  0  0  0  0
    5.7512    0.2850   -3.2578 N   0  0  0  0  0  0  0  0  0  0  0  0
    5.1156    2.6853   -3.0910 N   0  0  0  0  0  0  0  0  0  0  0  0
    5.8203    6.0621   -3.7602 C   0  0  0  0  0  0  0  0  0  0  0  0
    5.3813    7.2986   -3.1447 N   0  0  0  0  0  0  0  0  0  0  0  0
    6.3277    8.3700   -3.3357 C   0  0  0  0  0  0  0  0  0  0  0  0
    5.8525    9.1409   -4.5455 C   0  0  2  0  0  0  0  0  0  0  0  0
    5.8467   10.4675   -4.2273 F   0  0  0  0  0  0  0  0  0  0  0  0
    4.4625    8.6070   -4.8659 C   0  0  0  0  0  0  0  0  0  0  0  0
    4.1444    7.7752   -3.6686 C   0  0  1  0  0  0  0  0  0  0  0  0
  1  2  1  0
  2  3  1  0
  2  4  1  0
  4  5  2  0
  4  6  1  0
  6  7  1  0
  8  7  1  6
  8  9  1  0
  9 10  1  0
 10 11  1  6
 11 12  1  0
 12 13  2  0
 13 14  1  0
 14 15  1  0
 14 16  2  0
 10 17  1  0
 17 18  1  0
 18 19  1  0
 19 20  1  0
 20 21  1  1
 20 22  1  0
 23 22  1  6
 23  8  1  0
 16 11  1  0
 23 18  1  0
M  END
$$$$
