protein_ligand_3
     RDKit          3D

 23 25  0  0  0  0  0  0  0  0999 V2000
    0.4879    7.4018   -9.0006 C   0  0  0  0  0  0  0  0  0  0  0  0
    0.3021    7.6301   -7.5027 C   0  0  0  0  0  0  0  0  0  0  0  0
    0.4995    6.2886   -6.8386 C   0  0  0  0  0  0  0  0  0  0  0  0
    1.3490    8.5642   -7.0048 C   0  0  0  0  0  0  0  0  0  0  0  0
    1.4653    9.7095   -7.5113 O   0  0  0  0  0  0  0  0  0  0  0  0
    2.2191    8.2204   -5.9867 O   0  0  0  0  0  0  0  0  0  0  0  0
    2.8895    9.1098   -5.1368 C   0  0  0  0  0  0  0  0  0  0  0  0
    3.6467    8.3868   -4.0760 C   0  0  1  0  0  0  0  0  0  0  0  0
    4.3582    7.3064   -4.6099 O   0  0  0  0  0  0  0  0  0  0  0  0
    4.9398    6.6426   -3.5393 C   0  0  1  0  0  0  0  0  0  0  0  0
    5.4110    5.3257   -3.8904 N   0  0  0  0  0  0  0  0  0  0  0  0
    6.3537    5.1084   -4.8253 C   0  0  0  0  0  0  0  0  0  0  0  0
    6.5931    3.7480   -4.9374 C   0  0  0  0  0  0  0  0  0  0  0  0
    5.7464    3.1570   -4.0224 C   0  0  0  0  0  0  0  0  0  0  0  0
    5.6534    1.7523   -3.7934 N   0  0  0  0  0  0  0  0  0  0  0  0
    5.0556    4.1384   -3.4162 N   0  0  0  0  0  0  0  0  0  0  0  0
    6.0988    7.5372   -3.0822 C   0  0  0  0  0  0  0  0  0  0  0  0
    5.4723    8.6867   -2.4603 N   0  0  0  0  0  0  0  0  0  0  0  0
    6.4293    9.7062   -2.1072 C   0  0  0  0  0  0  0  0  0  0  0  0
    6.4358   10.6922   -3.2524 C   0  0  2  0  0  0  0  0  0  0  0  0
    6.3219   11.9478   -2.7311 F   0  0  0  0  0  0  0  0  0  0  0  0
    5.2570   10.3148   -4.1399 C   0  0  0  0  0  0  0  0  0  0  0  0
    4.5167    9.3261   -3.3027 C   0  0  1  0  0  0  0  0  0  0  0  0
  1  2  1  0
  2  3  1  0
  2  4  1  0
  4  5  2  0
  4  6  1  0
  6  7  1  0
  8  7  1  6
  8  9  1  0
  9 10  1  0
 10 11  1  6
 11 12  1  0
 12 13  2  0
 13 14  1  0
 14 15  1  0
 14 16  2  0
 10 17  1  0
 17 18  1  0
 18 19  1  0
 19 20  1  0
 20 21  1  1
 20 22  1  0
 23 22  1  6
 23  8  1  0
 16 11  1  0
 23 18  1  0
M  END
$$$$
