protein_ligand_2
     RDKit          3D

 23 24  0  0  0  0  0  0  0  0999 V2000
    5.2039   11.9066   -0.3351 C   0  0  0  0  0  0  0  0  0  0  0  0
    5.7483   12.1060   -1.7079 C   0  0  0  0  0  0  0  0  0  0  0  0
    4.7464   12.4149   -2.7637 C   0  0  0  0  0  0  0  0  0  0  0  0
    6.6974   13.3067   -1.6312 C   0  0  0  0  0  0  0  0  0  0  0  0
    6.5912   10.9020   -2.1312 C   0  0  1  0  0  0  0  0  0  0  0  0
    7.6915   10.7060   -1.2292 N   0  0  0  0  0  0  0  0  0  0  0  0
    8.9701   10.2243   -1.7035 C   0  0  0  0  0  0  0  0  0  0  0  0
    9.1379   10.2015   -2.9390 O   0  0  0  0  0  0  0  0  0  0  0  0
   10.0253    9.7820   -0.7821 C   0  0  0  0  0  0  0  0  0  0  0  0
    9.6053    8.6265   -0.1539 F   0  0  0  0  0  0  0  0  0  0  0  0
   10.2000   10.7559    0.1826 F   0  0  0  0  0  0  0  0  0  0  0  0
   11.2148    9.5418   -1.4381 F   0  0  0  0  0  0  0  0  0  0  0  0
    5.7680    9.7191   -2.4027 C   0  0  0  0  0  0  0  0  0  0  0  0
    5.3037    9.0890   -1.3775 O   0  0  0  0  0  0  0  0  0  0  0  0
    5.4260    9.1907   -3.6635 N   0  0  0  0  0  0  0  0  0  0  0  0
    5.7940    9.6831   -4.9639 C   0  0  0  0  0  0  0  0  0  0  0  0
    4.7829    9.0913   -5.9327 C   0  0  0  0  0  0  0  0  0  0  0  0
    4.2358    7.9550   -5.1921 C   0  0  0  0  0  0  0  0  0  0  0  0
    3.4644    6.9378   -5.6356 N   0  0  0  0  0  0  0  0  0  0  0  0
    3.0240    5.9492   -4.8474 C   0  0  0  0  0  0  0  0  0  0  0  0
    3.3914    5.9975   -3.5222 C   0  0  0  0  0  0  0  0  0  0  0  0
    4.1749    7.0153   -3.0324 C   0  0  0  0  0  0  0  0  0  0  0  0
    4.6235    8.0380   -3.8755 C   0  0  0  0  0  0  0  0  0  0  0  0
  1  2  1  0
  2  3  1  0
  2  4  1  0
  2  5  1  0
  5  6  1  1
  6  7  1  0
  7  8  2  0
  7  9  1  0
  9 10  1  0
  9 11  1  0
  9 12  1  0
  5 13  1  0
 13 14  2  0
 13 15  1  0
 15 16  1  0
 16 17  1  0
 17 18  1  0
 18 19  2  0
 19 20  1  0
 20 21  2  0
 21 22  1  0
 22 23  2  0
 23 15  1  0
 23 18  1  0
M  END
$$$$
