protein_ligand_1
     RDKit          3D

 23 24  0  0  0  0  0  0  0  0999 V2000
    5.1419    7.1034   -3.7057 C   0  0  0  0  0  0  0  0  0  0  0  0
    5.5363    8.4632   -4.2790 C   0  0  0  0  0  0  0  0  0  0  0  0
    6.2597    8.1678   -5.5700 C   0  0  0  0  0  0  0  0  0  0  0  0
    4.2476    9.1629   -4.6353 C   0  0  0  0  0  0  0  0  0  0  0  0
    6.3634    9.2423   -3.3018 C   0  0  2  0  0  0  0  0  0  0  0  0
    7.6357    8.6182   -3.0463 N   0  0  0  0  0  0  0  0  0  0  0  0
    8.8262    9.3597   -2.8252 C   0  0  0  0  0  0  0  0  0  0  0  0
    8.8031   10.5817   -3.1095 O   0  0  0  0  0  0  0  0  0  0  0  0
   10.0645    8.7705   -2.2874 C   0  0  0  0  0  0  0  0  0  0  0  0
    9.9396    8.4249   -0.9545 F   0  0  0  0  0  0  0  0  0  0  0  0
   11.1189    9.6739   -2.4513 F   0  0  0  0  0  0  0  0  0  0  0  0
   10.3730    7.6259   -2.9918 F   0  0  0  0  0  0  0  0  0  0  0  0
    5.5852    9.5946   -2.1150 C   0  0  0  0  0  0  0  0  0  0  0  0
    5.5173    8.6600   -1.2271 O   0  0  0  0  0  0  0  0  0  0  0  0
    4.9160   10.8029   -1.8345 N   0  0  0  0  0  0  0  0  0  0  0  0
    4.1925   11.0391   -0.5760 C   0  0  0  0  0  0  0  0  0  0  0  0
    4.4611   12.4603   -0.3010 C   0  0  0  0  0  0  0  0  0  0  0  0
    4.4564   13.2449    0.8521 C   0  0  0  0  0  0  0  0  0  0  0  0
    4.7487   14.5844    0.7518 C   0  0  0  0  0  0  0  0  0  0  0  0
    5.0516   15.2112   -0.4384 C   0  0  0  0  0  0  0  0  0  0  0  0
    5.0511   14.4185   -1.5643 C   0  0  0  0  0  0  0  0  0  0  0  0
    4.7624   13.0787   -1.4880 C   0  0  0  0  0  0  0  0  0  0  0  0
    4.7151   12.0260   -2.5626 C   0  0  0  0  0  0  0  0  0  0  0  0
  1  2  1  0
  2  3  1  0
  2  4  1  0
  2  5  1  0
  5  6  1  1
  6  7  1  0
  7  8  2  0
  7  9  1  0
  9 10  1  0
  9 11  1  0
  9 12  1  0
  5 13  1  0
 13 14  2  0
 13 15  1  0
 15 16  1  0
 16 17  1  0
 17 18  2  0
 18 19  1  0
 19 20  2  0
 20 21  1  0
 21 22  2  0
 22 23  1  0
 23 15  1  0
 22 17  1  0
M  END
$$$$
