protein_ligand_1
     RDKit          3D

 23 24  0  0  0  0  0  0  0  0999 V2000
    8.8270    8.3179   -2.9437 C   0  0  0  0  0  0  0  0  0  0  0  0
    7.8833    9.4644   -3.3017 C   0  0  0  0  0  0  0  0  0  0  0  0
    8.4819   10.6980   -2.6717 C   0  0  0  0  0  0  0  0  0  0  0  0
    7.9722    9.6351   -4.7984 C   0  0  0  0  0  0  0  0  0  0  0  0
    6.4871    9.1803   -2.8366 C   0  0  2  0  0  0  0  0  0  0  0  0
    5.9664    7.9582   -3.3924 N   0  0  0  0  0  0  0  0  0  0  0  0
    4.9317    7.2098   -2.7718 C   0  0  0  0  0  0  0  0  0  0  0  0
    4.5988    7.5442   -1.6090 O   0  0  0  0  0  0  0  0  0  0  0  0
    4.2438    6.0792   -3.4188 C   0  0  0  0  0  0  0  0  0  0  0  0
    3.9249    5.0803   -2.5177 F   0  0  0  0  0  0  0  0  0  0  0  0
    5.0509    5.5653   -4.4381 F   0  0  0  0  0  0  0  0  0  0  0  0
    3.0691    6.5215   -3.9899 F   0  0  0  0  0  0  0  0  0  0  0  0
    5.6310   10.3560   -2.9882 C   0  0  0  0  0  0  0  0  0  0  0  0
    5.3535   10.6573   -4.2124 O   0  0  0  0  0  0  0  0  0  0  0  0
    5.0888   11.1792   -1.9808 N   0  0  0  0  0  0  0  0  0  0  0  0
    5.3728   10.9806   -0.5515 C   0  0  0  0  0  0  0  0  0  0  0  0
    5.4461   12.3570   -0.0339 C   0  0  0  0  0  0  0  0  0  0  0  0
    6.0518   12.9473    1.0751 C   0  0  0  0  0  0  0  0  0  0  0  0
    5.9068   14.2993    1.2768 C   0  0  0  0  0  0  0  0  0  0  0  0
    5.1874   15.1223    0.4363 C   0  0  0  0  0  0  0  0  0  0  0  0
    4.5979   14.5196   -0.6523 C   0  0  0  0  0  0  0  0  0  0  0  0
    4.7295   13.1713   -0.8738 C   0  0  0  0  0  0  0  0  0  0  0  0
    4.1966   12.3063   -1.9843 C   0  0  0  0  0  0  0  0  0  0  0  0
  1  2  1  0
  2  3  1  0
  2  4  1  0
  2  5  1  0
  5  6  1  6
  6  7  1  0
  7  8  2  0
  7  9  1  0
  9 10  1  0
  9 11  1  0
  9 12  1  0
  5 13  1  0
 13 14  2  0
 13 15  1  0
 15 16  1  0
 16 17  1  0
 17 18  2  0
 18 19  1  0
 19 20  2  0
 20 21  1  0
 21 22  2  0
 22 23  1  0
 23 15  1  0
 22 17  1  0
M  END
$$$$
