protein_ligand_1
     RDKit          3D

 23 24  0  0  0  0  0  0  0  0999 V2000
    4.6981   10.9478   -5.0853 C   0  0  0  0  0  0  0  0  0  0  0  0
    5.8748    9.9627   -4.9799 C   0  0  0  0  0  0  0  0  0  0  0  0
    5.8896    9.0345   -6.1457 C   0  0  0  0  0  0  0  0  0  0  0  0
    7.1152   10.8067   -4.9507 C   0  0  0  0  0  0  0  0  0  0  0  0
    5.7630    9.2052   -3.6571 C   0  0  1  0  0  0  0  0  0  0  0  0
    5.6088   10.1330   -2.5668 N   0  0  0  0  0  0  0  0  0  0  0  0
    6.5722   10.0927   -1.4938 C   0  0  0  0  0  0  0  0  0  0  0  0
    7.5323    9.2795   -1.5754 O   0  0  0  0  0  0  0  0  0  0  0  0
    6.3865   11.0059   -0.3547 C   0  0  0  0  0  0  0  0  0  0  0  0
    6.6574   12.3151   -0.7152 F   0  0  0  0  0  0  0  0  0  0  0  0
    5.0356   10.9871    0.0101 F   0  0  0  0  0  0  0  0  0  0  0  0
    7.1755   10.6794    0.7203 F   0  0  0  0  0  0  0  0  0  0  0  0
    4.6484    8.2716   -3.7781 C   0  0  0  0  0  0  0  0  0  0  0  0
    3.4854    8.7866   -3.5943 O   0  0  0  0  0  0  0  0  0  0  0  0
    4.7021    6.8944   -4.0677 N   0  0  0  0  0  0  0  0  0  0  0  0
    3.6111    5.9470   -4.1907 C   0  0  0  0  0  0  0  0  0  0  0  0
    4.2500    4.6074   -3.8785 C   0  0  0  0  0  0  0  0  0  0  0  0
    5.6809    4.7907   -4.1786 C   0  0  0  0  0  0  0  0  0  0  0  0
    6.7145    3.9147   -4.3542 N   0  0  0  0  0  0  0  0  0  0  0  0
    7.9611    4.3257   -4.6299 C   0  0  0  0  0  0  0  0  0  0  0  0
    8.2489    5.6640   -4.7479 C   0  0  0  0  0  0  0  0  0  0  0  0
    7.1831    6.5532   -4.5663 C   0  0  0  0  0  0  0  0  0  0  0  0
    5.9035    6.1357   -4.2832 C   0  0  0  0  0  0  0  0  0  0  0  0
  1  2  1  0
  2  3  1  0
  2  4  1  0
  2  5  1  0
  5  6  1  1
  6  7  1  0
  7  8  2  0
  7  9  1  0
  9 10  1  0
  9 11  1  0
  9 12  1  0
  5 13  1  0
 13 14  2  0
 13 15  1  0
 15 16  1  0
 16 17  1  0
 17 18  1  0
 18 19  2  0
 19 20  1  0
 20 21  2  0
 21 22  1  0
 22 23  2  0
 23 15  1  0
 23 18  1  0
M  END
$$$$
