protein_ligand_1
     RDKit          3D

 23 24  0  0  0  0  0  0  0  0999 V2000
    8.7859    8.3410   -3.8415 C   0  0  0  0  0  0  0  0  0  0  0  0
    8.5527    9.6167   -3.0143 C   0  0  0  0  0  0  0  0  0  0  0  0
    9.7398    9.9170   -2.1649 C   0  0  0  0  0  0  0  0  0  0  0  0
    8.3146   10.7137   -4.0102 C   0  0  0  0  0  0  0  0  0  0  0  0
    7.2896    9.4318   -2.1736 C   0  0  1  0  0  0  0  0  0  0  0  0
    7.4046   10.1650   -0.9398 N   0  0  0  0  0  0  0  0  0  0  0  0
    6.4681   11.2335   -0.6902 C   0  0  0  0  0  0  0  0  0  0  0  0
    5.5766   11.4676   -1.5506 O   0  0  0  0  0  0  0  0  0  0  0  0
    6.5994   11.9986    0.5602 C   0  0  0  0  0  0  0  0  0  0  0  0
    7.6981   12.8400    0.5175 F   0  0  0  0  0  0  0  0  0  0  0  0
    5.4862   12.8378    0.6828 F   0  0  0  0  0  0  0  0  0  0  0  0
    6.7126   11.1921    1.6654 F   0  0  0  0  0  0  0  0  0  0  0  0
    6.1544    9.8526   -2.9877 C   0  0  0  0  0  0  0  0  0  0  0  0
    6.2490   11.0348   -3.4830 O   0  0  0  0  0  0  0  0  0  0  0  0
    4.9873    9.1232   -3.2861 N   0  0  0  0  0  0  0  0  0  0  0  0
    4.2135    8.2511   -2.4237 C   0  0  0  0  0  0  0  0  0  0  0  0
    3.5167    7.3071   -3.3847 C   0  0  0  0  0  0  0  0  0  0  0  0
    3.4620    8.0389   -4.6623 C   0  0  0  0  0  0  0  0  0  0  0  0
    2.7484    7.8516   -5.8122 N   0  0  0  0  0  0  0  0  0  0  0  0
    2.8659    8.6703   -6.8681 C   0  0  0  0  0  0  0  0  0  0  0  0
    3.7218    9.7445   -6.8314 C   0  0  0  0  0  0  0  0  0  0  0  0
    4.4482    9.9277   -5.6489 C   0  0  0  0  0  0  0  0  0  0  0  0
    4.3307    9.0903   -4.5642 C   0  0  0  0  0  0  0  0  0  0  0  0
  1  2  1  0
  2  3  1  0
  2  4  1  0
  2  5  1  0
  5  6  1  1
  6  7  1  0
  7  8  2  0
  7  9  1  0
  9 10  1  0
  9 11  1  0
  9 12  1  0
  5 13  1  0
 13 14  2  0
 13 15  1  0
 15 16  1  0
 16 17  1  0
 17 18  1  0
 18 19  2  0
 19 20  1  0
 20 21  2  0
 21 22  1  0
 22 23  2  0
 23 15  1  0
 23 18  1  0
M  END
$$$$
