protein_ligand_1
     RDKit          3D

 23 24  0  0  0  0  0  0  0  0999 V2000
    7.9030   11.0002   -4.1899 C   0  0  0  0  0  0  0  0  0  0  0  0
    6.7118   10.4429   -3.4128 C   0  0  0  0  0  0  0  0  0  0  0  0
    5.4866   11.0430   -4.0577 C   0  0  0  0  0  0  0  0  0  0  0  0
    6.6835    8.9593   -3.6868 C   0  0  0  0  0  0  0  0  0  0  0  0
    6.8254   10.7565   -1.9517 C   0  0  2  0  0  0  0  0  0  0  0  0
    8.0337   10.2276   -1.3738 N   0  0  0  0  0  0  0  0  0  0  0  0
    8.7413   10.8851   -0.3332 C   0  0  0  0  0  0  0  0  0  0  0  0
    8.3584   12.0376   -0.0172 O   0  0  0  0  0  0  0  0  0  0  0  0
    9.8834   10.2870    0.3794 C   0  0  0  0  0  0  0  0  0  0  0  0
    9.6043   10.0652    1.7152 F   0  0  0  0  0  0  0  0  0  0  0  0
   10.9981   11.1216    0.2548 F   0  0  0  0  0  0  0  0  0  0  0  0
   10.1970    9.0720   -0.1924 F   0  0  0  0  0  0  0  0  0  0  0  0
    5.5904   10.4237   -1.2431 C   0  0  0  0  0  0  0  0  0  0  0  0
    5.5137    9.1941   -0.8573 O   0  0  0  0  0  0  0  0  0  0  0  0
    4.5009   11.2653   -0.9412 N   0  0  0  0  0  0  0  0  0  0  0  0
    3.2756   10.7790   -0.2893 C   0  0  0  0  0  0  0  0  0  0  0  0
    2.9021   11.8982    0.5914 C   0  0  0  0  0  0  0  0  0  0  0  0
    2.1386   12.0076    1.7534 C   0  0  0  0  0  0  0  0  0  0  0  0
    1.9736   13.2434    2.3323 C   0  0  0  0  0  0  0  0  0  0  0  0
    2.5255   14.4014    1.8269 C   0  0  0  0  0  0  0  0  0  0  0  0
    3.2757   14.2712    0.6797 C   0  0  0  0  0  0  0  0  0  0  0  0
    3.4541   13.0472    0.0844 C   0  0  0  0  0  0  0  0  0  0  0  0
    4.2311   12.6624   -1.1458 C   0  0  0  0  0  0  0  0  0  0  0  0
  1  2  1  0
  2  3  1  0
  2  4  1  0
  2  5  1  0
  5  6  1  1
  6  7  1  0
  7  8  2  0
  7  9  1  0
  9 10  1  0
  9 11  1  0
  9 12  1  0
  5 13  1  0
 13 14  2  0
 13 15  1  0
 15 16  1  0
 16 17  1  0
 17 18  2  0
 18 19  1  0
 19 20  2  0
 20 21  1  0
 21 22  2  0
 22 23  1  0
 23 15  1  0
 22 17  1  0
M  END
$$$$
