protein_ligand_1
     RDKit          3D

 23 24  0  0  0  0  0  0  0  0999 V2000
    7.7891   10.2182   -5.1534 C   0  0  0  0  0  0  0  0  0  0  0  0
    7.8313   10.0535   -3.6247 C   0  0  0  0  0  0  0  0  0  0  0  0
    8.6434    8.8625   -3.2464 C   0  0  0  0  0  0  0  0  0  0  0  0
    8.4482   11.3139   -3.0930 C   0  0  0  0  0  0  0  0  0  0  0  0
    6.3985    9.9481   -3.1031 C   0  0  1  0  0  0  0  0  0  0  0  0
    5.7296    8.8300   -3.7161 N   0  0  0  0  0  0  0  0  0  0  0  0
    4.3005    8.7170   -3.5553 C   0  0  0  0  0  0  0  0  0  0  0  0
    3.6506    9.7379   -3.2014 O   0  0  0  0  0  0  0  0  0  0  0  0
    3.6702    7.4124   -3.8141 C   0  0  0  0  0  0  0  0  0  0  0  0
    2.2985    7.4769   -3.6370 F   0  0  0  0  0  0  0  0  0  0  0  0
    3.8616    7.0897   -5.1623 F   0  0  0  0  0  0  0  0  0  0  0  0
    4.1656    6.4159   -3.0102 F   0  0  0  0  0  0  0  0  0  0  0  0
    6.4663    9.8492   -1.6490 C   0  0  0  0  0  0  0  0  0  0  0  0
    6.6238    8.6585   -1.1917 O   0  0  0  0  0  0  0  0  0  0  0  0
    6.3796   10.8924   -0.7069 N   0  0  0  0  0  0  0  0  0  0  0  0
    6.5824   10.8420    0.7282 C   0  0  0  0  0  0  0  0  0  0  0  0
    5.7765   12.0138    1.2551 C   0  0  0  0  0  0  0  0  0  0  0  0
    5.6763   12.9465    0.1189 C   0  0  0  0  0  0  0  0  0  0  0  0
    5.3181   14.2615    0.0233 N   0  0  0  0  0  0  0  0  0  0  0  0
    5.3057   14.9159   -1.1474 C   0  0  0  0  0  0  0  0  0  0  0  0
    5.6585   14.2777   -2.3119 C   0  0  0  0  0  0  0  0  0  0  0  0
    6.0238   12.9308   -2.2032 C   0  0  0  0  0  0  0  0  0  0  0  0
    6.0376   12.2562   -1.0047 C   0  0  0  0  0  0  0  0  0  0  0  0
  1  2  1  0
  2  3  1  0
  2  4  1  0
  2  5  1  0
  5  6  1  6
  6  7  1  0
  7  8  2  0
  7  9  1  0
  9 10  1  0
  9 11  1  0
  9 12  1  0
  5 13  1  0
 13 14  2  0
 13 15  1  0
 15 16  1  0
 16 17  1  0
 17 18  1  0
 18 19  2  0
 19 20  1  0
 20 21  2  0
 21 22  1  0
 22 23  2  0
 23 15  1  0
 23 18  1  0
M  END
$$$$
