protein_ligand_1
     RDKit          3D

 23 24  0  0  0  0  0  0  0  0999 V2000
    4.8330   11.1784   -2.9663 C   0  0  0  0  0  0  0  0  0  0  0  0
    6.0532   10.5258   -3.6132 C   0  0  0  0  0  0  0  0  0  0  0  0
    6.1854   11.1656   -4.9735 C   0  0  0  0  0  0  0  0  0  0  0  0
    7.2469   10.9552   -2.7960 C   0  0  0  0  0  0  0  0  0  0  0  0
    5.9016    9.0359   -3.6720 C   0  0  2  0  0  0  0  0  0  0  0  0
    7.1708    8.3633   -3.7741 N   0  0  0  0  0  0  0  0  0  0  0  0
    7.3585    7.0106   -3.3859 C   0  0  0  0  0  0  0  0  0  0  0  0
    6.4862    6.4999   -2.6424 O   0  0  0  0  0  0  0  0  0  0  0  0
    8.5097    6.1943   -3.8083 C   0  0  0  0  0  0  0  0  0  0  0  0
    8.6695    6.1922   -5.1816 F   0  0  0  0  0  0  0  0  0  0  0  0
    8.3481    4.8860   -3.3427 F   0  0  0  0  0  0  0  0  0  0  0  0
    9.6638    6.7035   -3.2511 F   0  0  0  0  0  0  0  0  0  0  0  0
    4.9007    8.6462   -4.6642 C   0  0  0  0  0  0  0  0  0  0  0  0
    5.3158    8.6952   -5.8856 O   0  0  0  0  0  0  0  0  0  0  0  0
    3.5696    8.2357   -4.4496 N   0  0  0  0  0  0  0  0  0  0  0  0
    3.0057    8.0321   -3.1067 C   0  0  0  0  0  0  0  0  0  0  0  0
    1.6213    8.5117   -3.2523 C   0  0  0  0  0  0  0  0  0  0  0  0
    0.6598    8.9900   -2.3623 C   0  0  0  0  0  0  0  0  0  0  0  0
   -0.5766    9.3508   -2.8427 C   0  0  0  0  0  0  0  0  0  0  0  0
   -0.9314    9.2678   -4.1725 C   0  0  0  0  0  0  0  0  0  0  0  0
    0.0324    8.7935   -5.0340 C   0  0  0  0  0  0  0  0  0  0  0  0
    1.2739    8.4276   -4.5768 C   0  0  0  0  0  0  0  0  0  0  0  0
    2.4740    7.9039   -5.3190 C   0  0  0  0  0  0  0  0  0  0  0  0
  1  2  1  0
  2  3  1  0
  2  4  1  0
  2  5  1  0
  5  6  1  6
  6  7  1  0
  7  8  2  0
  7  9  1  0
  9 10  1  0
  9 11  1  0
  9 12  1  0
  5 13  1  0
 13 14  2  0
 13 15  1  0
 15 16  1  0
 16 17  1  0
 17 18  2  0
 18 19  1  0
 19 20  2  0
 20 21  1  0
 21 22  2  0
 22 23  1  0
 23 15  1  0
 22 17  1  0
M  END
$$$$
