protein_ligand_1
     RDKit          3D

 23 24  0  0  0  0  0  0  0  0999 V2000
    8.9817    9.7464   -2.6627 C   0  0  0  0  0  0  0  0  0  0  0  0
    7.6047   10.3776   -2.8594 C   0  0  0  0  0  0  0  0  0  0  0  0
    7.6443   11.6862   -2.1091 C   0  0  0  0  0  0  0  0  0  0  0  0
    7.4941   10.7044   -4.3285 C   0  0  0  0  0  0  0  0  0  0  0  0
    6.5172    9.4590   -2.3905 C   0  0  2  0  0  0  0  0  0  0  0  0
    6.5417    8.1925   -3.0753 N   0  0  0  0  0  0  0  0  0  0  0  0
    5.7862    7.0700   -2.6450 C   0  0  0  0  0  0  0  0  0  0  0  0
    5.2789    7.1243   -1.4985 O   0  0  0  0  0  0  0  0  0  0  0  0
    5.5748    5.8667   -3.4678 C   0  0  0  0  0  0  0  0  0  0  0  0
    6.7660    5.2496   -3.8021 F   0  0  0  0  0  0  0  0  0  0  0  0
    4.8727    6.2127   -4.6262 F   0  0  0  0  0  0  0  0  0  0  0  0
    4.8125    4.9572   -2.7653 F   0  0  0  0  0  0  0  0  0  0  0  0
    5.2232   10.1398   -2.3716 C   0  0  0  0  0  0  0  0  0  0  0  0
    4.3740    9.6915   -3.2344 O   0  0  0  0  0  0  0  0  0  0  0  0
    4.8055   11.2020   -1.5448 N   0  0  0  0  0  0  0  0  0  0  0  0
    3.4554   11.7811   -1.6132 C   0  0  0  0  0  0  0  0  0  0  0  0
    3.1538   12.0862   -0.2048 C   0  0  0  0  0  0  0  0  0  0  0  0
    1.9757   12.2573    0.5219 C   0  0  0  0  0  0  0  0  0  0  0  0
    2.0527   12.5581    1.8609 C   0  0  0  0  0  0  0  0  0  0  0  0
    3.2426   12.7038    2.5421 C   0  0  0  0  0  0  0  0  0  0  0  0
    4.3935   12.5305    1.8062 C   0  0  0  0  0  0  0  0  0  0  0  0
    4.3407   12.2294    0.4680 C   0  0  0  0  0  0  0  0  0  0  0  0
    5.4465   11.9845   -0.5233 C   0  0  0  0  0  0  0  0  0  0  0  0
  1  2  1  0
  2  3  1  0
  2  4  1  0
  2  5  1  0
  5  6  1  6
  6  7  1  0
  7  8  2  0
  7  9  1  0
  9 10  1  0
  9 11  1  0
  9 12  1  0
  5 13  1  0
 13 14  2  0
 13 15  1  0
 15 16  1  0
 16 17  1  0
 17 18  2  0
 18 19  1  0
 19 20  2  0
 20 21  1  0
 21 22  2  0
 22 23  1  0
 23 15  1  0
 22 17  1  0
M  END
$$$$
