protein_ligand_1
     RDKit          3D

 23 24  0  0  0  0  0  0  0  0999 V2000
    9.8906   11.8667   -3.8106 C   0  0  0  0  0  0  0  0  0  0  0  0
    8.3677   11.7655   -3.7502 C   0  0  0  0  0  0  0  0  0  0  0  0
    7.8792   13.1530   -3.4136 C   0  0  0  0  0  0  0  0  0  0  0  0
    7.9074   11.4545   -5.1532 C   0  0  0  0  0  0  0  0  0  0  0  0
    7.9340   10.7285   -2.7588 C   0  0  2  0  0  0  0  0  0  0  0  0
    8.4362    9.4192   -3.0858 N   0  0  0  0  0  0  0  0  0  0  0  0
    8.8837    8.4985   -2.1020 C   0  0  0  0  0  0  0  0  0  0  0  0
    9.0312    8.9325   -0.9338 O   0  0  0  0  0  0  0  0  0  0  0  0
    9.1774    7.0830   -2.3848 C   0  0  0  0  0  0  0  0  0  0  0  0
    9.9337    6.4992   -1.3854 F   0  0  0  0  0  0  0  0  0  0  0  0
    9.8427    6.9818   -3.6103 F   0  0  0  0  0  0  0  0  0  0  0  0
    7.9958    6.3790   -2.4840 F   0  0  0  0  0  0  0  0  0  0  0  0
    6.4954   10.8068   -2.5087 C   0  0  0  0  0  0  0  0  0  0  0  0
    5.7643   10.3139   -3.4516 O   0  0  0  0  0  0  0  0  0  0  0  0
    5.8301   11.3451   -1.3889 N   0  0  0  0  0  0  0  0  0  0  0  0
    6.5441   11.8938   -0.2261 C   0  0  0  0  0  0  0  0  0  0  0  0
    5.7060   13.0385    0.1675 C   0  0  0  0  0  0  0  0  0  0  0  0
    5.9398   14.2150    0.8792 C   0  0  0  0  0  0  0  0  0  0  0  0
    4.9003   15.0902    1.0862 C   0  0  0  0  0  0  0  0  0  0  0  0
    3.6186   14.8735    0.6261 C   0  0  0  0  0  0  0  0  0  0  0  0
    3.4095   13.7065   -0.0741 C   0  0  0  0  0  0  0  0  0  0  0  0
    4.4327   12.8180   -0.2930 C   0  0  0  0  0  0  0  0  0  0  0  0
    4.4473   11.5060   -1.0304 C   0  0  0  0  0  0  0  0  0  0  0  0
  1  2  1  0
  2  3  1  0
  2  4  1  0
  2  5  1  0
  5  6  1  6
  6  7  1  0
  7  8  2  0
  7  9  1  0
  9 10  1  0
  9 11  1  0
  9 12  1  0
  5 13  1  0
 13 14  2  0
 13 15  1  0
 15 16  1  0
 16 17  1  0
 17 18  2  0
 18 19  1  0
 19 20  2  0
 20 21  1  0
 21 22  2  0
 22 23  1  0
 23 15  1  0
 22 17  1  0
M  END
$$$$
