protein_ligand_1
     RDKit          3D

 23 24  0  0  0  0  0  0  0  0999 V2000
    8.3706   11.4793   -3.7924 C   0  0  0  0  0  0  0  0  0  0  0  0
    7.6310   10.1860   -4.1749 C   0  0  0  0  0  0  0  0  0  0  0  0
    7.0237   10.3088   -5.5303 C   0  0  0  0  0  0  0  0  0  0  0  0
    8.6648    9.0986   -4.1471 C   0  0  0  0  0  0  0  0  0  0  0  0
    6.5764    9.8906   -3.1087 C   0  0  1  0  0  0  0  0  0  0  0  0
    5.9236    8.6387   -3.3917 N   0  0  0  0  0  0  0  0  0  0  0  0
    4.4814    8.6064   -3.3980 C   0  0  0  0  0  0  0  0  0  0  0  0
    3.8532    9.6983   -3.3441 O   0  0  0  0  0  0  0  0  0  0  0  0
    3.8132    7.2970   -3.4684 C   0  0  0  0  0  0  0  0  0  0  0  0
    4.4019    6.3890   -2.6046 F   0  0  0  0  0  0  0  0  0  0  0  0
    2.4973    7.4484   -3.0167 F   0  0  0  0  0  0  0  0  0  0  0  0
    3.8248    6.7635   -4.7332 F   0  0  0  0  0  0  0  0  0  0  0  0
    7.2452    9.9088   -1.8122 C   0  0  0  0  0  0  0  0  0  0  0  0
    7.9716    8.8789   -1.5605 O   0  0  0  0  0  0  0  0  0  0  0  0
    7.1852   10.9093   -0.8228 N   0  0  0  0  0  0  0  0  0  0  0  0
    7.9658   11.0350    0.3929 C   0  0  0  0  0  0  0  0  0  0  0  0
    7.0866   11.8625    1.3108 C   0  0  0  0  0  0  0  0  0  0  0  0
    6.1967   12.6135    0.4079 C   0  0  0  0  0  0  0  0  0  0  0  0
    5.3830   13.6955    0.5913 N   0  0  0  0  0  0  0  0  0  0  0  0
    4.6527   14.2180   -0.4051 C   0  0  0  0  0  0  0  0  0  0  0  0
    4.6971   13.6757   -1.6668 C   0  0  0  0  0  0  0  0  0  0  0  0
    5.5337   12.5675   -1.8442 C   0  0  0  0  0  0  0  0  0  0  0  0
    6.2839   12.0287   -0.8250 C   0  0  0  0  0  0  0  0  0  0  0  0
  1  2  1  0
  2  3  1  0
  2  4  1  0
  2  5  1  0
  5  6  1  6
  6  7  1  0
  7  8  2  0
  7  9  1  0
  9 10  1  0
  9 11  1  0
  9 12  1  0
  5 13  1  0
 13 14  2  0
 13 15  1  0
 15 16  1  0
 16 17  1  0
 17 18  1  0
 18 19  2  0
 19 20  1  0
 20 21  2  0
 21 22  1  0
 22 23  2  0
 23 15  1  0
 23 18  1  0
M  END
$$$$
