protein_ligand_1
     RDKit          3D

 23 24  0  0  0  0  0  0  0  0999 V2000
    6.2791   10.8371   -4.2615 C   0  0  0  0  0  0  0  0  0  0  0  0
    5.7808    9.4483   -4.6566 C   0  0  0  0  0  0  0  0  0  0  0  0
    4.5956    9.6817   -5.5611 C   0  0  0  0  0  0  0  0  0  0  0  0
    6.8718    8.8291   -5.4952 C   0  0  0  0  0  0  0  0  0  0  0  0
    5.4494    8.6286   -3.4464 C   0  0  2  0  0  0  0  0  0  0  0  0
    5.1629    7.2573   -3.7796 N   0  0  0  0  0  0  0  0  0  0  0  0
    4.9736    6.2498   -2.7973 C   0  0  0  0  0  0  0  0  0  0  0  0
    5.3014    6.5280   -1.6184 O   0  0  0  0  0  0  0  0  0  0  0  0
    4.4201    4.9172   -3.0935 C   0  0  0  0  0  0  0  0  0  0  0  0
    4.6880    4.0076   -2.0874 F   0  0  0  0  0  0  0  0  0  0  0  0
    4.9401    4.4568   -4.3068 F   0  0  0  0  0  0  0  0  0  0  0  0
    3.0504    5.0071   -3.2258 F   0  0  0  0  0  0  0  0  0  0  0  0
    4.4496    9.2966   -2.6143 C   0  0  0  0  0  0  0  0  0  0  0  0
    3.3180    8.6794   -2.5444 O   0  0  0  0  0  0  0  0  0  0  0  0
    4.5724   10.5051   -1.8996 N   0  0  0  0  0  0  0  0  0  0  0  0
    3.4582   11.1029   -1.1485 C   0  0  0  0  0  0  0  0  0  0  0  0
    4.1237   11.6711    0.0355 C   0  0  0  0  0  0  0  0  0  0  0  0
    3.6994   12.0090    1.3204 C   0  0  0  0  0  0  0  0  0  0  0  0
    4.6037   12.5487    2.2040 C   0  0  0  0  0  0  0  0  0  0  0  0
    5.9269   12.7806    1.8935 C   0  0  0  0  0  0  0  0  0  0  0  0
    6.3251   12.4397    0.6203 C   0  0  0  0  0  0  0  0  0  0  0  0
    5.4395   11.8992   -0.2786 C   0  0  0  0  0  0  0  0  0  0  0  0
    5.6437   11.4422   -1.6980 C   0  0  0  0  0  0  0  0  0  0  0  0
  1  2  1  0
  2  3  1  0
  2  4  1  0
  2  5  1  0
  5  6  1  6
  6  7  1  0
  7  8  2  0
  7  9  1  0
  9 10  1  0
  9 11  1  0
  9 12  1  0
  5 13  1  0
 13 14  2  0
 13 15  1  0
 15 16  1  0
 16 17  1  0
 17 18  2  0
 18 19  1  0
 19 20  2  0
 20 21  1  0
 21 22  2  0
 22 23  1  0
 23 15  1  0
 22 17  1  0
M  END
$$$$
