protein_ligand_1
     RDKit          3D

 23 24  0  0  0  0  0  0  0  0999 V2000
    9.4636   10.3509   -3.1263 C   0  0  0  0  0  0  0  0  0  0  0  0
    8.1658   10.4187   -3.9491 C   0  0  0  0  0  0  0  0  0  0  0  0
    8.0581   11.7271   -4.6544 C   0  0  0  0  0  0  0  0  0  0  0  0
    8.2420    9.2855   -4.9298 C   0  0  0  0  0  0  0  0  0  0  0  0
    6.9798   10.1824   -3.0144 C   0  0  1  0  0  0  0  0  0  0  0  0
    6.8789   11.2570   -2.0613 N   0  0  0  0  0  0  0  0  0  0  0  0
    6.8260   10.9236   -0.6588 C   0  0  0  0  0  0  0  0  0  0  0  0
    7.0046    9.7232   -0.3169 O   0  0  0  0  0  0  0  0  0  0  0  0
    6.5665   12.0043    0.3060 C   0  0  0  0  0  0  0  0  0  0  0  0
    7.5256   12.9985    0.2118 F   0  0  0  0  0  0  0  0  0  0  0  0
    5.3544   12.6164   -0.0327 F   0  0  0  0  0  0  0  0  0  0  0  0
    6.5293   11.5584    1.6038 F   0  0  0  0  0  0  0  0  0  0  0  0
    5.7885   10.0375   -3.8440 C   0  0  0  0  0  0  0  0  0  0  0  0
    5.4349   11.0982   -4.4778 O   0  0  0  0  0  0  0  0  0  0  0  0
    4.9960    8.8874   -4.0251 N   0  0  0  0  0  0  0  0  0  0  0  0
    5.1290    7.5835   -3.4045 C   0  0  0  0  0  0  0  0  0  0  0  0
    4.4692    6.6380   -4.3898 C   0  0  0  0  0  0  0  0  0  0  0  0
    3.5336    7.4803   -5.1553 C   0  0  0  0  0  0  0  0  0  0  0  0
    2.4846    7.1918   -5.9816 N   0  0  0  0  0  0  0  0  0  0  0  0
    1.7594    8.1499   -6.5777 C   0  0  0  0  0  0  0  0  0  0  0  0
    2.0496    9.4776   -6.3759 C   0  0  0  0  0  0  0  0  0  0  0  0
    3.1261    9.7625   -5.5277 C   0  0  0  0  0  0  0  0  0  0  0  0
    3.8721    8.7831   -4.9148 C   0  0  0  0  0  0  0  0  0  0  0  0
  1  2  1  0
  2  3  1  0
  2  4  1  0
  2  5  1  0
  5  6  1  1
  6  7  1  0
  7  8  2  0
  7  9  1  0
  9 10  1  0
  9 11  1  0
  9 12  1  0
  5 13  1  0
 13 14  2  0
 13 15  1  0
 15 16  1  0
 16 17  1  0
 17 18  1  0
 18 19  2  0
 19 20  1  0
 20 21  2  0
 21 22  1  0
 22 23  2  0
 23 15  1  0
 23 18  1  0
M  END
$$$$
