protein_ligand_0
     RDKit          3D

 25 27  0  0  0  0  0  0  0  0999 V2000
   10.0725    9.5120   -0.2963 C   0  0  0  0  0  0  0  0  0  0  0  0
    8.7450   10.2158   -0.5969 C   0  0  0  0  0  0  0  0  0  0  0  0
    8.5779   11.2870    0.4857 C   0  0  0  0  0  0  0  0  0  0  0  0
    8.8114   10.9056   -1.9097 C   0  0  0  0  0  0  0  0  0  0  0  0
    9.8277   10.7625   -2.6289 O   0  0  0  0  0  0  0  0  0  0  0  0
    7.7699   11.6887   -2.3248 O   0  0  0  0  0  0  0  0  0  0  0  0
    7.4457   11.9833   -3.6654 C   0  0  0  0  0  0  0  0  0  0  0  0
    6.3617   11.0600   -4.1184 C   0  0  1  0  0  0  0  0  0  0  0  0
    6.6464    9.7191   -3.7881 O   0  0  0  0  0  0  0  0  0  0  0  0
    5.5779    8.9548   -4.2557 C   0  0  1  0  0  0  0  0  0  0  0  0
    5.8764    7.5667   -4.3665 N   0  0  0  0  0  0  0  0  0  0  0  0
    6.4828    6.8254   -3.4222 C   0  0  0  0  0  0  0  0  0  0  0  0
    6.6072    5.5137   -3.8805 C   0  0  0  0  0  0  0  0  0  0  0  0
    6.0439    5.5250   -5.1386 C   0  0  0  0  0  0  0  0  0  0  0  0
    5.9283    4.4134   -6.0233 N   0  0  0  0  0  0  0  0  0  0  0  0
    5.6178    6.7829   -5.3876 N   0  0  0  0  0  0  0  0  0  0  0  0
    4.4298    9.2322   -3.3437 C   0  0  0  0  0  0  0  0  0  0  0  0
    3.5908    8.2814   -2.8564 C   0  0  0  0  0  0  0  0  0  0  0  0
    2.5625    8.6679   -2.0182 C   0  0  0  0  0  0  0  0  0  0  0  0
    2.3785    9.9886   -1.6739 C   0  0  0  0  0  0  0  0  0  0  0  0
    1.3703   10.3733   -0.8512 F   0  0  0  0  0  0  0  0  0  0  0  0
    3.2194   10.9712   -2.1576 C   0  0  0  0  0  0  0  0  0  0  0  0
    3.0551   12.2788   -1.8301 F   0  0  0  0  0  0  0  0  0  0  0  0
    4.2372   10.5582   -2.9920 C   0  0  0  0  0  0  0  0  0  0  0  0
    5.1391   11.4715   -3.5327 O   0  0  0  0  0  0  0  0  0  0  0  0
  1  2  1  0
  2  3  1  0
  2  4  1  0
  4  5  2  0
  4  6  1  0
  6  7  1  0
  8  7  1  1
  8  9  1  0
  9 10  1  0
 10 11  1  1
 11 12  1  0
 12 13  2  0
 13 14  1  0
 14 15  1  0
 14 16  2  0
 10 17  1  0
 17 18  2  0
 18 19  1  0
 19 20  2  0
 20 21  1  0
 20 22  1  0
 22 23  1  0
 22 24  2  0
 24 25  1  0
 25  8  1  0
 16 11  1  0
 24 17  1  0
M  END
$$$$
