protein_ligand_0
     RDKit          3D

 25 27  0  0  0  0  0  0  0  0999 V2000
    5.4675    8.1938   -6.2149 C   0  0  0  0  0  0  0  0  0  0  0  0
    4.9756    6.9017   -5.5542 C   0  0  0  0  0  0  0  0  0  0  0  0
    6.0983    5.8759   -5.7404 C   0  0  0  0  0  0  0  0  0  0  0  0
    4.7867    7.1064   -4.0960 C   0  0  0  0  0  0  0  0  0  0  0  0
    5.6599    6.6916   -3.2985 O   0  0  0  0  0  0  0  0  0  0  0  0
    3.6680    7.7425   -3.6334 O   0  0  0  0  0  0  0  0  0  0  0  0
    3.5750    9.1121   -3.3098 C   0  0  0  0  0  0  0  0  0  0  0  0
    4.6591    9.4581   -2.3413 C   0  0  1  0  0  0  0  0  0  0  0  0
    5.7306   10.1223   -2.9728 O   0  0  0  0  0  0  0  0  0  0  0  0
    6.6749   10.3924   -1.9830 C   0  0  1  0  0  0  0  0  0  0  0  0
    7.9690   10.6911   -2.4970 N   0  0  0  0  0  0  0  0  0  0  0  0
    9.1083   10.0728   -2.1385 C   0  0  0  0  0  0  0  0  0  0  0  0
   10.1732   10.6292   -2.8474 C   0  0  0  0  0  0  0  0  0  0  0  0
    9.6003   11.6026   -3.6375 C   0  0  0  0  0  0  0  0  0  0  0  0
   10.2811   12.4588   -4.5515 N   0  0  0  0  0  0  0  0  0  0  0  0
    8.2716   11.6028   -3.3922 N   0  0  0  0  0  0  0  0  0  0  0  0
    6.1104   11.4952   -1.1511 C   0  0  0  0  0  0  0  0  0  0  0  0
    6.8222   12.5661   -0.7126 C   0  0  0  0  0  0  0  0  0  0  0  0
    6.1821   13.5220    0.0528 C   0  0  0  0  0  0  0  0  0  0  0  0
    4.8478   13.4056    0.3736 C   0  0  0  0  0  0  0  0  0  0  0  0
    4.2147   14.3416    1.1248 F   0  0  0  0  0  0  0  0  0  0  0  0
    4.1056   12.3256   -0.0615 C   0  0  0  0  0  0  0  0  0  0  0  0
    2.7891   12.1923    0.2438 F   0  0  0  0  0  0  0  0  0  0  0  0
    4.7688   11.3864   -0.8235 C   0  0  0  0  0  0  0  0  0  0  0  0
    4.1098   10.2603   -1.3109 O   0  0  0  0  0  0  0  0  0  0  0  0
  1  2  1  0
  2  3  1  0
  2  4  1  0
  4  5  2  0
  4  6  1  0
  6  7  1  0
  8  7  1  6
  8  9  1  0
  9 10  1  0
 10 11  1  6
 11 12  1  0
 12 13  2  0
 13 14  1  0
 14 15  1  0
 14 16  2  0
 10 17  1  0
 17 18  2  0
 18 19  1  0
 19 20  2  0
 20 21  1  0
 20 22  1  0
 22 23  1  0
 22 24  2  0
 24 25  1  0
 25  8  1  0
 16 11  1  0
 24 17  1  0
M  END
$$$$
