protein_ligand_0
     RDKit          3D

 25 27  0  0  0  0  0  0  0  0999 V2000
    2.3074    9.9498   -6.4713 C   0  0  0  0  0  0  0  0  0  0  0  0
    2.3236    8.5533   -7.1017 C   0  0  0  0  0  0  0  0  0  0  0  0
    2.7079    8.7554   -8.5710 C   0  0  0  0  0  0  0  0  0  0  0  0
    3.3729    7.7137   -6.4708 C   0  0  0  0  0  0  0  0  0  0  0  0
    4.4665    7.5499   -7.0604 O   0  0  0  0  0  0  0  0  0  0  0  0
    3.1420    7.1269   -5.2573 O   0  0  0  0  0  0  0  0  0  0  0  0
    4.0585    6.3284   -4.5421 C   0  0  0  0  0  0  0  0  0  0  0  0
    4.5939    7.1149   -3.3899 C   0  0  1  0  0  0  0  0  0  0  0  0
    5.4017    8.1874   -3.8207 O   0  0  0  0  0  0  0  0  0  0  0  0
    5.8431    8.8439   -2.6724 C   0  0  1  0  0  0  0  0  0  0  0  0
    6.9691    9.6867   -2.8959 N   0  0  0  0  0  0  0  0  0  0  0  0
    7.0530   10.6341   -3.8470 C   0  0  0  0  0  0  0  0  0  0  0  0
    8.2994   11.2552   -3.7651 C   0  0  0  0  0  0  0  0  0  0  0  0
    8.9395   10.6246   -2.7198 C   0  0  0  0  0  0  0  0  0  0  0  0
   10.2518   10.9051   -2.2390 N   0  0  0  0  0  0  0  0  0  0  0  0
    8.0994    9.6877   -2.2276 N   0  0  0  0  0  0  0  0  0  0  0  0
    4.6647    9.5795   -2.1276 C   0  0  0  0  0  0  0  0  0  0  0  0
    4.7067   10.8532   -1.6567 C   0  0  0  0  0  0  0  0  0  0  0  0
    3.5432   11.4238   -1.1774 C   0  0  0  0  0  0  0  0  0  0  0  0
    2.3550   10.7274   -1.1704 C   0  0  0  0  0  0  0  0  0  0  0  0
    1.2098   11.2834   -0.7008 F   0  0  0  0  0  0  0  0  0  0  0  0
    2.2898    9.4321   -1.6442 C   0  0  0  0  0  0  0  0  0  0  0  0
    1.1283    8.7284   -1.6461 F   0  0  0  0  0  0  0  0  0  0  0  0
    3.4652    8.8866   -2.1167 C   0  0  0  0  0  0  0  0  0  0  0  0
    3.5052    7.5870   -2.6160 O   0  0  0  0  0  0  0  0  0  0  0  0
  1  2  1  0
  2  3  1  0
  2  4  1  0
  4  5  2  0
  4  6  1  0
  6  7  1  0
  8  7  1  6
  8  9  1  0
  9 10  1  0
 10 11  1  6
 11 12  1  0
 12 13  2  0
 13 14  1  0
 14 15  1  0
 14 16  2  0
 10 17  1  0
 17 18  2  0
 18 19  1  0
 19 20  2  0
 20 21  1  0
 20 22  1  0
 22 23  1  0
 22 24  2  0
 24 25  1  0
 25  8  1  0
 16 11  1  0
 24 17  1  0
M  END
$$$$
