protein_ligand_0
     RDKit          3D

 25 27  0  0  0  0  0  0  0  0999 V2000
    4.4300    4.9096   -6.3829 C   0  0  0  0  0  0  0  0  0  0  0  0
    3.7291    6.2021   -6.8145 C   0  0  0  0  0  0  0  0  0  0  0  0
    3.1683    5.9335   -8.2147 C   0  0  0  0  0  0  0  0  0  0  0  0
    2.5836    6.4935   -5.9163 C   0  0  0  0  0  0  0  0  0  0  0  0
    1.4543    6.7157   -6.4122 O   0  0  0  0  0  0  0  0  0  0  0  0
    2.7654    6.5180   -4.5611 O   0  0  0  0  0  0  0  0  0  0  0  0
    2.7077    7.6661   -3.7440 C   0  0  0  0  0  0  0  0  0  0  0  0
    4.0698    7.9420   -3.1951 C   0  0  1  0  0  0  0  0  0  0  0  0
    5.0534    7.9220   -4.2052 O   0  0  0  0  0  0  0  0  0  0  0  0
    6.2729    8.1878   -3.5834 C   0  0  1  0  0  0  0  0  0  0  0  0
    7.4035    7.8165   -4.3657 N   0  0  0  0  0  0  0  0  0  0  0  0
    7.6171    8.1803   -5.6428 C   0  0  0  0  0  0  0  0  0  0  0  0
    8.8231    7.6314   -6.0790 C   0  0  0  0  0  0  0  0  0  0  0  0
    9.3036    6.9292   -4.9945 C   0  0  0  0  0  0  0  0  0  0  0  0
   10.5187    6.1860   -4.9392 N   0  0  0  0  0  0  0  0  0  0  0  0
    8.4149    7.0699   -3.9864 N   0  0  0  0  0  0  0  0  0  0  0  0
    6.2597    9.6378   -3.2313 C   0  0  0  0  0  0  0  0  0  0  0  0
    7.3112   10.4795   -3.4091 C   0  0  0  0  0  0  0  0  0  0  0  0
    7.1723   11.8042   -3.0416 C   0  0  0  0  0  0  0  0  0  0  0  0
    5.9963   12.2778   -2.5037 C   0  0  0  0  0  0  0  0  0  0  0  0
    5.8550   13.5778   -2.1412 F   0  0  0  0  0  0  0  0  0  0  0  0
    4.9153   11.4399   -2.3143 C   0  0  0  0  0  0  0  0  0  0  0  0
    3.7471   11.8871   -1.7855 F   0  0  0  0  0  0  0  0  0  0  0  0
    5.0806   10.1229   -2.6895 C   0  0  0  0  0  0  0  0  0  0  0  0
    4.0505    9.1976   -2.5394 O   0  0  0  0  0  0  0  0  0  0  0  0
  1  2  1  0
  2  3  1  0
  2  4  1  0
  4  5  2  0
  4  6  1  0
  6  7  1  0
  8  7  1  6
  8  9  1  0
  9 10  1  0
 10 11  1  6
 11 12  1  0
 12 13  2  0
 13 14  1  0
 14 15  1  0
 14 16  2  0
 10 17  1  0
 17 18  2  0
 18 19  1  0
 19 20  2  0
 20 21  1  0
 20 22  1  0
 22 23  1  0
 22 24  2  0
 24 25  1  0
 25  8  1  0
 16 11  1  0
 24 17  1  0
M  END
$$$$
