protein_ligand_0
     RDKit          3D

 25 27  0  0  0  0  0  0  0  0999 V2000
   10.0401   12.5306   -4.1615 C   0  0  0  0  0  0  0  0  0  0  0  0
    9.3785   11.3777   -3.3994 C   0  0  0  0  0  0  0  0  0  0  0  0
   10.3459   10.1937   -3.4974 C   0  0  0  0  0  0  0  0  0  0  0  0
    9.2314   11.7243   -1.9634 C   0  0  0  0  0  0  0  0  0  0  0  0
   10.0324   11.2418   -1.1291 O   0  0  0  0  0  0  0  0  0  0  0  0
    8.2291   12.5631   -1.5611 O   0  0  0  0  0  0  0  0  0  0  0  0
    7.0883   12.1866   -0.8221 C   0  0  0  0  0  0  0  0  0  0  0  0
    6.0321   11.7108   -1.7660 C   0  0  1  0  0  0  0  0  0  0  0  0
    6.1935   10.3469   -2.0853 O   0  0  0  0  0  0  0  0  0  0  0  0
    5.1634   10.0158   -2.9648 C   0  0  1  0  0  0  0  0  0  0  0  0
    5.3990    8.8135   -3.6908 N   0  0  0  0  0  0  0  0  0  0  0  0
    5.9428    7.6934   -3.1820 C   0  0  0  0  0  0  0  0  0  0  0  0
    6.0182    6.7258   -4.1840 C   0  0  0  0  0  0  0  0  0  0  0  0
    5.4920    7.3352   -5.3028 C   0  0  0  0  0  0  0  0  0  0  0  0
    5.3493    6.7514   -6.5954 N   0  0  0  0  0  0  0  0  0  0  0  0
    5.1330    8.5911   -4.9572 N   0  0  0  0  0  0  0  0  0  0  0  0
    3.9131    9.9690   -2.1517 C   0  0  0  0  0  0  0  0  0  0  0  0
    2.9626    9.0046   -2.2619 C   0  0  0  0  0  0  0  0  0  0  0  0
    1.8472    9.0741   -1.4493 C   0  0  0  0  0  0  0  0  0  0  0  0
    1.6874   10.0957   -0.5395 C   0  0  0  0  0  0  0  0  0  0  0  0
    0.5940   10.1683    0.2606 F   0  0  0  0  0  0  0  0  0  0  0  0
    2.6409   11.0860   -0.4110 C   0  0  0  0  0  0  0  0  0  0  0  0
    2.5023   12.1017    0.4797 F   0  0  0  0  0  0  0  0  0  0  0  0
    3.7440   10.9928   -1.2339 C   0  0  0  0  0  0  0  0  0  0  0  0
    4.7622   11.9417   -1.1818 O   0  0  0  0  0  0  0  0  0  0  0  0
  1  2  1  0
  2  3  1  0
  2  4  1  0
  4  5  2  0
  4  6  1  0
  6  7  1  0
  8  7  1  1
  8  9  1  0
  9 10  1  0
 10 11  1  1
 11 12  1  0
 12 13  2  0
 13 14  1  0
 14 15  1  0
 14 16  2  0
 10 17  1  0
 17 18  2  0
 18 19  1  0
 19 20  2  0
 20 21  1  0
 20 22  1  0
 22 23  1  0
 22 24  2  0
 24 25  1  0
 25  8  1  0
 16 11  1  0
 24 17  1  0
M  END
$$$$
