protein_ligand_0
     RDKit          3D

 25 27  0  0  0  0  0  0  0  0999 V2000
    6.5825   11.3070    2.2335 C   0  0  0  0  0  0  0  0  0  0  0  0
    6.9542   12.1985    1.0439 C   0  0  0  0  0  0  0  0  0  0  0  0
    7.9266   13.2496    1.5888 C   0  0  0  0  0  0  0  0  0  0  0  0
    7.6722   11.4097    0.0114 C   0  0  0  0  0  0  0  0  0  0  0  0
    8.2849   10.3695    0.3479 O   0  0  0  0  0  0  0  0  0  0  0  0
    7.6615   11.8196   -1.2932 O   0  0  0  0  0  0  0  0  0  0  0  0
    7.7857   10.9806   -2.4201 C   0  0  0  0  0  0  0  0  0  0  0  0
    6.4261   10.7104   -2.9781 C   0  0  1  0  0  0  0  0  0  0  0  0
    6.1395    9.3301   -3.0091 O   0  0  0  0  0  0  0  0  0  0  0  0
    4.8588    9.1979   -3.5443 C   0  0  1  0  0  0  0  0  0  0  0  0
    4.5709    7.8847   -4.0141 N   0  0  0  0  0  0  0  0  0  0  0  0
    4.5649    6.7733   -3.2567 C   0  0  0  0  0  0  0  0  0  0  0  0
    4.2408    5.6769   -4.0560 C   0  0  0  0  0  0  0  0  0  0  0  0
    4.0577    6.2020   -5.3172 C   0  0  0  0  0  0  0  0  0  0  0  0
    3.7099    5.4756   -6.4933 N   0  0  0  0  0  0  0  0  0  0  0  0
    4.2671    7.5348   -5.2427 N   0  0  0  0  0  0  0  0  0  0  0  0
    3.9106    9.6591   -2.4885 C   0  0  0  0  0  0  0  0  0  0  0  0
    2.7526    9.0251   -2.1680 C   0  0  0  0  0  0  0  0  0  0  0  0
    1.9590    9.5544   -1.1683 C   0  0  0  0  0  0  0  0  0  0  0  0
    2.3215   10.7028   -0.5000 C   0  0  0  0  0  0  0  0  0  0  0  0
    1.5457   11.2265    0.4824 F   0  0  0  0  0  0  0  0  0  0  0  0
    3.4939   11.3631   -0.8096 C   0  0  0  0  0  0  0  0  0  0  0  0
    3.8692   12.4965   -0.1625 F   0  0  0  0  0  0  0  0  0  0  0  0
    4.2672   10.8136   -1.8109 C   0  0  0  0  0  0  0  0  0  0  0  0
    5.4680   11.4036   -2.1979 O   0  0  0  0  0  0  0  0  0  0  0  0
  1  2  1  0
  2  3  1  0
  2  4  1  0
  4  5  2  0
  4  6  1  0
  6  7  1  0
  8  7  1  1
  8  9  1  0
  9 10  1  0
 10 11  1  1
 11 12  1  0
 12 13  2  0
 13 14  1  0
 14 15  1  0
 14 16  2  0
 10 17  1  0
 17 18  2  0
 18 19  1  0
 19 20  2  0
 20 21  1  0
 20 22  1  0
 22 23  1  0
 22 24  2  0
 24 25  1  0
 25  8  1  0
 16 11  1  0
 24 17  1  0
M  END
$$$$
