protein_ligand_4
     RDKit          3D

 18 20  0  0  0  0  0  0  0  0999 V2000
    6.5592    4.1515   -5.3620 C   0  0  0  0  0  0  0  0  0  0  0  0
    5.5047    4.9807   -4.7720 N   0  0  0  0  0  0  0  0  0  0  0  0
    4.7619    4.7330   -3.6846 C   0  0  0  0  0  0  0  0  0  0  0  0
    3.9144    5.7622   -3.5034 N   0  0  0  0  0  0  0  0  0  0  0  0
    4.1156    6.6542   -4.4641 C   0  0  0  0  0  0  0  0  0  0  0  0
    3.4694    7.9592   -4.7461 C   0  0  0  0  0  0  0  0  0  0  0  0
    4.4029    9.0156   -4.9523 N   0  0  0  0  0  0  0  0  0  0  0  0
    4.7132    9.4073   -6.1878 C   0  0  0  0  0  0  0  0  0  0  0  0
    4.0097    8.6664   -7.6188 Cl  0  0  0  0  0  0  0  0  0  0  0  0
    5.6247   10.4386   -6.3823 C   0  0  0  0  0  0  0  0  0  0  0  0
    6.1855   11.0317   -5.3246 N   0  0  0  0  0  0  0  0  0  0  0  0
    5.8883   10.6531   -4.0569 C   0  0  0  0  0  0  0  0  0  0  0  0
    6.5133   11.2875   -2.8894 C   0  0  0  0  0  0  0  0  0  0  0  0
    5.7453   11.5766   -1.6464 C   0  0  0  0  0  0  0  0  0  0  0  0
    6.1105   12.7006   -2.5570 C   0  0  0  0  0  0  0  0  0  0  0  0
    4.9829    9.6311   -3.9084 C   0  0  0  0  0  0  0  0  0  0  0  0
    4.6840    9.2578   -2.7194 O   0  0  0  0  0  0  0  0  0  0  0  0
    5.1014    6.1518   -5.2360 N   0  0  0  0  0  0  0  0  0  0  0  0
  1  2  1  0
  2  3  1  0
  3  4  2  0
  4  5  1  0
  5  6  1  0
  6  7  1  0
  7  8  1  0
  8  9  1  0
  8 10  2  0
 10 11  1  0
 11 12  2  0
 12 13  1  0
 13 14  1  0
 14 15  1  0
 12 16  1  0
 16 17  2  0
  5 18  2  0
 18  2  1  0
 16  7  1  0
 15 13  1  0
M  END
$$$$
