protein_ligand_4
     RDKit          3D

 18 20  0  0  0  0  0  0  0  0999 V2000
    4.8379    4.1959   -4.6968 C   0  0  0  0  0  0  0  0  0  0  0  0
    5.6599    5.3487   -4.3186 N   0  0  0  0  0  0  0  0  0  0  0  0
    6.9856    5.3993   -4.1301 C   0  0  0  0  0  0  0  0  0  0  0  0
    7.3207    6.6578   -3.7922 N   0  0  0  0  0  0  0  0  0  0  0  0
    6.2212    7.3991   -3.7660 C   0  0  0  0  0  0  0  0  0  0  0  0
    6.0097    8.8349   -3.4595 C   0  0  0  0  0  0  0  0  0  0  0  0
    4.8167    9.3621   -4.0329 N   0  0  0  0  0  0  0  0  0  0  0  0
    3.7602    9.6251   -3.2642 C   0  0  0  0  0  0  0  0  0  0  0  0
    3.7622    9.3472   -1.5280 Cl  0  0  0  0  0  0  0  0  0  0  0  0
    2.5992   10.1394   -3.8297 C   0  0  0  0  0  0  0  0  0  0  0  0
    2.5508   10.3667   -5.1453 N   0  0  0  0  0  0  0  0  0  0  0  0
    3.6105   10.1080   -5.9508 C   0  0  0  0  0  0  0  0  0  0  0  0
    3.5598   10.3384   -7.4001 C   0  0  0  0  0  0  0  0  0  0  0  0
    2.6489   11.3502   -8.0041 C   0  0  0  0  0  0  0  0  0  0  0  0
    2.3220    9.9008   -8.1391 C   0  0  0  0  0  0  0  0  0  0  0  0
    4.7383    9.6014   -5.3526 C   0  0  0  0  0  0  0  0  0  0  0  0
    5.7538    9.3517   -6.0933 O   0  0  0  0  0  0  0  0  0  0  0  0
    5.2078    6.5712   -4.0939 N   0  0  0  0  0  0  0  0  0  0  0  0
  1  2  1  0
  2  3  1  0
  3  4  2  0
  4  5  1  0
  5  6  1  0
  6  7  1  0
  7  8  1  0
  8  9  1  0
  8 10  2  0
 10 11  1  0
 11 12  2  0
 12 13  1  0
 13 14  1  0
 14 15  1  0
 12 16  1  0
 16 17  2  0
  5 18  2  0
 18  2  1  0
 16  7  1  0
 15 13  1  0
M  END
$$$$
