protein_ligand_4
     RDKit          3D

 18 20  0  0  0  0  0  0  0  0999 V2000
    1.7405    9.0303   -6.6915 C   0  0  0  0  0  0  0  0  0  0  0  0
    2.5619    8.3763   -5.6691 N   0  0  0  0  0  0  0  0  0  0  0  0
    2.8413    7.0727   -5.5348 C   0  0  0  0  0  0  0  0  0  0  0  0
    3.6320    6.9147   -4.4576 N   0  0  0  0  0  0  0  0  0  0  0  0
    3.8530    8.1037   -3.9132 C   0  0  0  0  0  0  0  0  0  0  0  0
    4.6431    8.5104   -2.7255 C   0  0  0  0  0  0  0  0  0  0  0  0
    4.4867    9.8865   -2.3909 N   0  0  0  0  0  0  0  0  0  0  0  0
    3.6850   10.2483   -1.3896 C   0  0  0  0  0  0  0  0  0  0  0  0
    2.7836    9.0813   -0.4318 Cl  0  0  0  0  0  0  0  0  0  0  0  0
    3.5367   11.5925   -1.0681 C   0  0  0  0  0  0  0  0  0  0  0  0
    4.2017   12.5156   -1.7686 N   0  0  0  0  0  0  0  0  0  0  0  0
    5.0235   12.1757   -2.7922 C   0  0  0  0  0  0  0  0  0  0  0  0
    5.7442   13.1849   -3.5784 C   0  0  0  0  0  0  0  0  0  0  0  0
    5.8902   13.0732   -5.0565 C   0  0  0  0  0  0  0  0  0  0  0  0
    7.0669   12.7924   -4.1835 C   0  0  0  0  0  0  0  0  0  0  0  0
    5.1426   10.8374   -3.0769 C   0  0  0  0  0  0  0  0  0  0  0  0
    5.9160   10.4916   -4.0384 O   0  0  0  0  0  0  0  0  0  0  0  0
    3.1832    8.9916   -4.6768 N   0  0  0  0  0  0  0  0  0  0  0  0
  1  2  1  0
  2  3  1  0
  3  4  2  0
  4  5  1  0
  5  6  1  0
  6  7  1  0
  7  8  1  0
  8  9  1  0
  8 10  2  0
 10 11  1  0
 11 12  2  0
 12 13  1  0
 13 14  1  0
 14 15  1  0
 12 16  1  0
 16 17  2  0
  5 18  2  0
 18  2  1  0
 16  7  1  0
 15 13  1  0
M  END
$$$$
