protein_ligand_4
     RDKit          3D

 18 20  0  0  0  0  0  0  0  0999 V2000
    9.3326    7.6100   -4.3628 C   0  0  0  0  0  0  0  0  0  0  0  0
    8.5325    8.3428   -3.3777 N   0  0  0  0  0  0  0  0  0  0  0  0
    8.7276    8.4425   -2.0557 C   0  0  0  0  0  0  0  0  0  0  0  0
    7.7538    9.2131   -1.5378 N   0  0  0  0  0  0  0  0  0  0  0  0
    6.9488    9.5991   -2.5186 C   0  0  0  0  0  0  0  0  0  0  0  0
    5.7318   10.4472   -2.5164 C   0  0  0  0  0  0  0  0  0  0  0  0
    4.7521   10.0266   -3.4614 N   0  0  0  0  0  0  0  0  0  0  0  0
    4.6965   10.5892   -4.6684 C   0  0  0  0  0  0  0  0  0  0  0  0
    5.8021   11.8612   -5.1698 Cl  0  0  0  0  0  0  0  0  0  0  0  0
    3.7383   10.1744   -5.5858 C   0  0  0  0  0  0  0  0  0  0  0  0
    2.8762    9.2108   -5.2493 N   0  0  0  0  0  0  0  0  0  0  0  0
    2.9099    8.6215   -4.0285 C   0  0  0  0  0  0  0  0  0  0  0  0
    1.9550    7.5742   -3.6443 C   0  0  0  0  0  0  0  0  0  0  0  0
    0.5301    7.6124   -4.0762 C   0  0  0  0  0  0  0  0  0  0  0  0
    0.8727    7.9357   -2.6606 C   0  0  0  0  0  0  0  0  0  0  0  0
    3.8720    9.0597   -3.1519 C   0  0  0  0  0  0  0  0  0  0  0  0
    3.9252    8.5156   -1.9929 O   0  0  0  0  0  0  0  0  0  0  0  0
    7.4479    9.0507   -3.6456 N   0  0  0  0  0  0  0  0  0  0  0  0
  1  2  1  0
  2  3  1  0
  3  4  2  0
  4  5  1  0
  5  6  1  0
  6  7  1  0
  7  8  1  0
  8  9  1  0
  8 10  2  0
 10 11  1  0
 11 12  2  0
 12 13  1  0
 13 14  1  0
 14 15  1  0
 12 16  1  0
 16 17  2  0
  5 18  2  0
 18  2  1  0
 16  7  1  0
 15 13  1  0
M  END
$$$$
