protein_ligand_4
     RDKit          3D

 18 20  0  0  0  0  0  0  0  0999 V2000
    2.9517    8.5730   -5.1760 C   0  0  0  0  0  0  0  0  0  0  0  0
    3.8645    8.5627   -4.0295 N   0  0  0  0  0  0  0  0  0  0  0  0
    4.1516    7.5472   -3.2037 C   0  0  0  0  0  0  0  0  0  0  0  0
    5.0404    7.9785   -2.2902 N   0  0  0  0  0  0  0  0  0  0  0  0
    5.3154    9.2533   -2.5319 C   0  0  0  0  0  0  0  0  0  0  0  0
    6.2156   10.2127   -1.8468 C   0  0  0  0  0  0  0  0  0  0  0  0
    5.6602   11.5195   -1.7304 N   0  0  0  0  0  0  0  0  0  0  0  0
    5.2013   11.9533   -0.5567 C   0  0  0  0  0  0  0  0  0  0  0  0
    5.2471   10.9675    0.8986 Cl  0  0  0  0  0  0  0  0  0  0  0  0
    4.6606   13.2293   -0.4497 C   0  0  0  0  0  0  0  0  0  0  0  0
    4.6044   14.0147   -1.5291 N   0  0  0  0  0  0  0  0  0  0  0  0
    5.0635   13.5989   -2.7354 C   0  0  0  0  0  0  0  0  0  0  0  0
    4.9895   14.4489   -3.9304 C   0  0  0  0  0  0  0  0  0  0  0  0
    4.9752   15.9354   -3.8384 C   0  0  0  0  0  0  0  0  0  0  0  0
    3.7136   15.2125   -4.1725 C   0  0  0  0  0  0  0  0  0  0  0  0
    5.5905   12.3321   -2.7981 C   0  0  0  0  0  0  0  0  0  0  0  0
    6.0335   11.9181   -3.9270 O   0  0  0  0  0  0  0  0  0  0  0  0
    4.5788    9.5936   -3.6097 N   0  0  0  0  0  0  0  0  0  0  0  0
  1  2  1  0
  2  3  1  0
  3  4  2  0
  4  5  1  0
  5  6  1  0
  6  7  1  0
  7  8  1  0
  8  9  1  0
  8 10  2  0
 10 11  1  0
 11 12  2  0
 12 13  1  0
 13 14  1  0
 14 15  1  0
 12 16  1  0
 16 17  2  0
  5 18  2  0
 18  2  1  0
 16  7  1  0
 15 13  1  0
M  END
$$$$
