protein_ligand_4
     RDKit          3D

 18 20  0  0  0  0  0  0  0  0999 V2000
    9.9543    4.8614   -5.9619 C   0  0  0  0  0  0  0  0  0  0  0  0
    8.5911    5.3698   -5.7857 N   0  0  0  0  0  0  0  0  0  0  0  0
    7.4618    4.6741   -5.5953 C   0  0  0  0  0  0  0  0  0  0  0  0
    6.4400    5.5422   -5.4826 N   0  0  0  0  0  0  0  0  0  0  0  0
    6.9136    6.7755   -5.5999 C   0  0  0  0  0  0  0  0  0  0  0  0
    6.2402    8.0964   -5.5554 C   0  0  0  0  0  0  0  0  0  0  0  0
    4.8382    8.0048   -5.3191 N   0  0  0  0  0  0  0  0  0  0  0  0
    4.3462    8.2203   -4.0993 C   0  0  0  0  0  0  0  0  0  0  0  0
    5.3676    8.6239   -2.7261 Cl  0  0  0  0  0  0  0  0  0  0  0  0
    2.9774    8.1294   -3.8752 C   0  0  0  0  0  0  0  0  0  0  0  0
    2.1618    7.8249   -4.8886 N   0  0  0  0  0  0  0  0  0  0  0  0
    2.6352    7.6004   -6.1393 C   0  0  0  0  0  0  0  0  0  0  0  0
    1.7477    7.2479   -7.2548 C   0  0  0  0  0  0  0  0  0  0  0  0
    0.4186    7.8951   -7.4369 C   0  0  0  0  0  0  0  0  0  0  0  0
    0.4845    6.4911   -6.9366 C   0  0  0  0  0  0  0  0  0  0  0  0
    3.9932    7.7007   -6.3183 C   0  0  0  0  0  0  0  0  0  0  0  0
    4.4638    7.4955   -7.4925 O   0  0  0  0  0  0  0  0  0  0  0  0
    8.2434    6.6459   -5.7864 N   0  0  0  0  0  0  0  0  0  0  0  0
  1  2  1  0
  2  3  1  0
  3  4  2  0
  4  5  1  0
  5  6  1  0
  6  7  1  0
  7  8  1  0
  8  9  1  0
  8 10  2  0
 10 11  1  0
 11 12  2  0
 12 13  1  0
 13 14  1  0
 14 15  1  0
 12 16  1  0
 16 17  2  0
  5 18  2  0
 18  2  1  0
 16  7  1  0
 15 13  1  0
M  END
$$$$
