protein_ligand_4
     RDKit          3D

 18 20  0  0  0  0  0  0  0  0999 V2000
    5.9738    4.2471   -4.1503 C   0  0  0  0  0  0  0  0  0  0  0  0
    5.7717    5.4723   -4.9288 N   0  0  0  0  0  0  0  0  0  0  0  0
    6.0734    5.7005   -6.2142 C   0  0  0  0  0  0  0  0  0  0  0  0
    5.7174    6.9619   -6.5185 N   0  0  0  0  0  0  0  0  0  0  0  0
    5.1954    7.5294   -5.4393 C   0  0  0  0  0  0  0  0  0  0  0  0
    4.6463    8.8882   -5.2103 C   0  0  0  0  0  0  0  0  0  0  0  0
    4.2198    9.1030   -3.8680 N   0  0  0  0  0  0  0  0  0  0  0  0
    5.0618    9.6095   -2.9676 C   0  0  0  0  0  0  0  0  0  0  0  0
    6.7206   10.0392   -3.3618 Cl  0  0  0  0  0  0  0  0  0  0  0  0
    4.6395    9.8167   -1.6596 C   0  0  0  0  0  0  0  0  0  0  0  0
    3.3874    9.5048   -1.3133 N   0  0  0  0  0  0  0  0  0  0  0  0
    2.5101    8.9879   -2.2087 C   0  0  0  0  0  0  0  0  0  0  0  0
    1.1377    8.6259   -1.8323 C   0  0  0  0  0  0  0  0  0  0  0  0
    0.4379    7.4591   -2.4383 C   0  0  0  0  0  0  0  0  0  0  0  0
    0.0492    8.8388   -2.8518 C   0  0  0  0  0  0  0  0  0  0  0  0
    2.9667    8.7994   -3.4902 C   0  0  0  0  0  0  0  0  0  0  0  0
    2.1546    8.3146   -4.3550 O   0  0  0  0  0  0  0  0  0  0  0  0
    5.2387    6.5923   -4.4698 N   0  0  0  0  0  0  0  0  0  0  0  0
  1  2  1  0
  2  3  1  0
  3  4  2  0
  4  5  1  0
  5  6  1  0
  6  7  1  0
  7  8  1  0
  8  9  1  0
  8 10  2  0
 10 11  1  0
 11 12  2  0
 12 13  1  0
 13 14  1  0
 14 15  1  0
 12 16  1  0
 16 17  2  0
  5 18  2  0
 18  2  1  0
 16  7  1  0
 15 13  1  0
M  END
$$$$
