protein_ligand_1
     RDKit          3D

 19 21  0  0  0  0  0  0  0  0999 V2000
    7.7326    3.7276   -6.3214 C   0  0  0  0  0  0  0  0  0  0  0  0
    6.5494    3.9496   -5.4783 N   0  0  0  0  0  0  0  0  0  0  0  0
    5.8688    2.9745   -4.8592 C   0  0  0  0  0  0  0  0  0  0  0  0
    4.8553    3.5367   -4.1823 N   0  0  0  0  0  0  0  0  0  0  0  0
    4.8879    4.8566   -4.3670 C   0  0  0  0  0  0  0  0  0  0  0  0
    3.9597    5.8347   -3.8034 C   0  0  0  0  0  0  0  0  0  0  0  0
    4.1719    7.1944   -4.1669 N   0  0  0  0  0  0  0  0  0  0  0  0
    3.5600    7.7536   -5.2079 C   0  0  0  0  0  0  0  0  0  0  0  0
    2.6589    6.9420   -6.0707 C   0  0  0  0  0  0  0  0  0  0  0  0
    2.0062    7.8828   -6.9046 O   0  0  0  0  0  0  0  0  0  0  0  0
    3.7550    9.0748   -5.5332 N   0  0  0  0  0  0  0  0  0  0  0  0
    4.5651    9.8795   -4.8335 C   0  0  0  0  0  0  0  0  0  0  0  0
    4.7809   11.3105   -5.1797 C   0  0  0  0  0  0  0  0  0  0  0  0
    3.7283   12.0078   -6.0159 C   0  0  0  0  0  0  0  0  0  0  0  0
    5.0756   11.7032   -6.5849 C   0  0  0  0  0  0  0  0  0  0  0  0
    5.2094    9.3173   -3.7506 C   0  0  0  0  0  0  0  0  0  0  0  0
    5.0083    7.9913   -3.4304 C   0  0  0  0  0  0  0  0  0  0  0  0
    5.5673    7.4336   -2.4603 O   0  0  0  0  0  0  0  0  0  0  0  0
    5.9585    5.1050   -5.1845 C   0  0  0  0  0  0  0  0  0  0  0  0
  1  2  1  0
  2  3  1  0
  3  4  2  0
  4  5  1  0
  5  6  1  0
  6  7  1  0
  7  8  1  0
  8  9  1  0
  9 10  1  0
  8 11  2  0
 11 12  1  0
 12 13  1  0
 13 14  1  0
 14 15  1  0
 12 16  2  0
 16 17  1  0
 17 18  2  0
  5 19  2  0
 19  2  1  0
 17  7  1  0
 15 13  1  0
M  END
$$$$
