protein_ligand_1
     RDKit          3D

 19 21  0  0  0  0  0  0  0  0999 V2000
    3.0797    7.1744   -4.2378 C   0  0  0  0  0  0  0  0  0  0  0  0
    4.2647    8.0112   -4.4740 N   0  0  0  0  0  0  0  0  0  0  0  0
    5.0424    7.9299   -5.5629 C   0  0  0  0  0  0  0  0  0  0  0  0
    6.0250    8.8364   -5.4437 N   0  0  0  0  0  0  0  0  0  0  0  0
    5.8766    9.4898   -4.2912 C   0  0  0  0  0  0  0  0  0  0  0  0
    6.7361   10.5564   -3.7816 C   0  0  0  0  0  0  0  0  0  0  0  0
    6.3405   11.1590   -2.5543 N   0  0  0  0  0  0  0  0  0  0  0  0
    6.7715   10.7159   -1.3759 C   0  0  0  0  0  0  0  0  0  0  0  0
    7.6552    9.5205   -1.3036 C   0  0  0  0  0  0  0  0  0  0  0  0
    8.0871    9.4662    0.0444 O   0  0  0  0  0  0  0  0  0  0  0  0
    6.4013   11.3225   -0.1992 N   0  0  0  0  0  0  0  0  0  0  0  0
    5.5905   12.3876   -0.1591 C   0  0  0  0  0  0  0  0  0  0  0  0
    5.1856   13.0494    1.1106 C   0  0  0  0  0  0  0  0  0  0  0  0
    3.9344   13.9025    1.1018 C   0  0  0  0  0  0  0  0  0  0  0  0
    5.2831   14.5284    1.2466 C   0  0  0  0  0  0  0  0  0  0  0  0
    5.1323   12.8612   -1.3714 C   0  0  0  0  0  0  0  0  0  0  0  0
    5.5085   12.2475   -2.5474 C   0  0  0  0  0  0  0  0  0  0  0  0
    5.1219   12.6366   -3.6716 O   0  0  0  0  0  0  0  0  0  0  0  0
    4.7653    8.9619   -3.6892 C   0  0  0  0  0  0  0  0  0  0  0  0
  1  2  1  0
  2  3  1  0
  3  4  2  0
  4  5  1  0
  5  6  1  0
  6  7  1  0
  7  8  1  0
  8  9  1  0
  9 10  1  0
  8 11  2  0
 11 12  1  0
 12 13  1  0
 13 14  1  0
 14 15  1  0
 12 16  2  0
 16 17  1  0
 17 18  2  0
  5 19  2  0
 19  2  1  0
 17  7  1  0
 15 13  1  0
M  END
$$$$
