protein_ligand_1
     RDKit          3D

 19 21  0  0  0  0  0  0  0  0999 V2000
    6.0461    3.3971   -6.7297 C   0  0  0  0  0  0  0  0  0  0  0  0
    5.5684    3.9980   -5.4764 N   0  0  0  0  0  0  0  0  0  0  0  0
    5.4899    3.3462   -4.3075 C   0  0  0  0  0  0  0  0  0  0  0  0
    5.0146    4.1974   -3.3851 N   0  0  0  0  0  0  0  0  0  0  0  0
    4.7918    5.3802   -3.9583 C   0  0  0  0  0  0  0  0  0  0  0  0
    4.2741    6.5788   -3.3016 C   0  0  0  0  0  0  0  0  0  0  0  0
    4.1883    7.7537   -4.1005 N   0  0  0  0  0  0  0  0  0  0  0  0
    5.1826    8.6351   -4.1738 C   0  0  0  0  0  0  0  0  0  0  0  0
    6.4165    8.4401   -3.3649 C   0  0  0  0  0  0  0  0  0  0  0  0
    7.4771    8.4679   -4.3036 O   0  0  0  0  0  0  0  0  0  0  0  0
    5.0963    9.7533   -4.9686 N   0  0  0  0  0  0  0  0  0  0  0  0
    4.0183   10.0292   -5.7136 C   0  0  0  0  0  0  0  0  0  0  0  0
    3.9179   11.2375   -6.5762 C   0  0  0  0  0  0  0  0  0  0  0  0
    2.5366   11.7513   -6.9247 C   0  0  0  0  0  0  0  0  0  0  0  0
    3.4016   11.1218   -7.9674 C   0  0  0  0  0  0  0  0  0  0  0  0
    2.9761    9.1270   -5.6500 C   0  0  0  0  0  0  0  0  0  0  0  0
    3.0703    8.0074   -4.8507 C   0  0  0  0  0  0  0  0  0  0  0  0
    2.1555    7.1595   -4.7573 O   0  0  0  0  0  0  0  0  0  0  0  0
    5.1440    5.2429   -5.2748 C   0  0  0  0  0  0  0  0  0  0  0  0
  1  2  1  0
  2  3  1  0
  3  4  2  0
  4  5  1  0
  5  6  1  0
  6  7  1  0
  7  8  1  0
  8  9  1  0
  9 10  1  0
  8 11  2  0
 11 12  1  0
 12 13  1  0
 13 14  1  0
 14 15  1  0
 12 16  2  0
 16 17  1  0
 17 18  2  0
  5 19  2  0
 19  2  1  0
 17  7  1  0
 15 13  1  0
M  END
$$$$
