protein_ligand_1
     RDKit          3D

 19 21  0  0  0  0  0  0  0  0999 V2000
    8.4714    6.7358   -6.7979 C   0  0  0  0  0  0  0  0  0  0  0  0
    7.3336    6.3347   -5.9586 N   0  0  0  0  0  0  0  0  0  0  0  0
    6.8986    5.0733   -5.8276 C   0  0  0  0  0  0  0  0  0  0  0  0
    5.8499    5.0774   -4.9900 N   0  0  0  0  0  0  0  0  0  0  0  0
    5.6174    6.3278   -4.5902 C   0  0  0  0  0  0  0  0  0  0  0  0
    4.5647    6.7644   -3.6752 C   0  0  0  0  0  0  0  0  0  0  0  0
    4.5691    8.1408   -3.3126 N   0  0  0  0  0  0  0  0  0  0  0  0
    3.8590    9.0506   -3.9750 C   0  0  0  0  0  0  0  0  0  0  0  0
    3.0656    8.6553   -5.1705 C   0  0  0  0  0  0  0  0  0  0  0  0
    1.9716    9.5549   -5.1970 O   0  0  0  0  0  0  0  0  0  0  0  0
    3.8529   10.3728   -3.5990 N   0  0  0  0  0  0  0  0  0  0  0  0
    4.5536   10.8301   -2.5533 C   0  0  0  0  0  0  0  0  0  0  0  0
    4.5517   12.2597   -2.1405 C   0  0  0  0  0  0  0  0  0  0  0  0
    5.8241   12.8331   -1.5526 C   0  0  0  0  0  0  0  0  0  0  0  0
    4.6172   12.6210   -0.6981 C   0  0  0  0  0  0  0  0  0  0  0  0
    5.2973    9.9015   -1.8543 C   0  0  0  0  0  0  0  0  0  0  0  0
    5.2979    8.5769   -2.2374 C   0  0  0  0  0  0  0  0  0  0  0  0
    5.9538    7.6961   -1.6388 O   0  0  0  0  0  0  0  0  0  0  0  0
    6.5575    7.1106   -5.2062 C   0  0  0  0  0  0  0  0  0  0  0  0
  1  2  1  0
  2  3  1  0
  3  4  2  0
  4  5  1  0
  5  6  1  0
  6  7  1  0
  7  8  1  0
  8  9  1  0
  9 10  1  0
  8 11  2  0
 11 12  1  0
 12 13  1  0
 13 14  1  0
 14 15  1  0
 12 16  2  0
 16 17  1  0
 17 18  2  0
  5 19  2  0
 19  2  1  0
 17  7  1  0
 15 13  1  0
M  END
$$$$
