protein_ligand_1
     RDKit          3D

 19 21  0  0  0  0  0  0  0  0999 V2000
    5.0985    6.4444   -8.9470 C   0  0  0  0  0  0  0  0  0  0  0  0
    4.4241    6.2658   -7.6534 N   0  0  0  0  0  0  0  0  0  0  0  0
    3.7516    5.1620   -7.2976 C   0  0  0  0  0  0  0  0  0  0  0  0
    3.2700    5.3468   -6.0585 N   0  0  0  0  0  0  0  0  0  0  0  0
    3.6309    6.5556   -5.6273 C   0  0  0  0  0  0  0  0  0  0  0  0
    3.3095    7.1453   -4.3293 C   0  0  0  0  0  0  0  0  0  0  0  0
    3.8989    8.4088   -4.0424 N   0  0  0  0  0  0  0  0  0  0  0  0
    5.1113    8.5196   -3.5050 C   0  0  0  0  0  0  0  0  0  0  0  0
    5.8789    7.3002   -3.1324 C   0  0  0  0  0  0  0  0  0  0  0  0
    6.2958    7.5246   -1.7973 O   0  0  0  0  0  0  0  0  0  0  0  0
    5.6789    9.7464   -3.2558 N   0  0  0  0  0  0  0  0  0  0  0  0
    5.0576   10.9001   -3.5326 C   0  0  0  0  0  0  0  0  0  0  0  0
    5.6659   12.2315   -3.2656 C   0  0  0  0  0  0  0  0  0  0  0  0
    4.7406   13.4222   -3.1254 C   0  0  0  0  0  0  0  0  0  0  0  0
    5.6379   13.2893   -4.3124 C   0  0  0  0  0  0  0  0  0  0  0  0
    3.7987   10.8055   -4.0896 C   0  0  0  0  0  0  0  0  0  0  0  0
    3.2362    9.5712   -4.3370 C   0  0  0  0  0  0  0  0  0  0  0  0
    2.0996    9.4302   -4.8398 O   0  0  0  0  0  0  0  0  0  0  0  0
    4.3571    7.1250   -6.6395 C   0  0  0  0  0  0  0  0  0  0  0  0
  1  2  1  0
  2  3  1  0
  3  4  2  0
  4  5  1  0
  5  6  1  0
  6  7  1  0
  7  8  1  0
  8  9  1  0
  9 10  1  0
  8 11  2  0
 11 12  1  0
 12 13  1  0
 13 14  1  0
 14 15  1  0
 12 16  2  0
 16 17  1  0
 17 18  2  0
  5 19  2  0
 19  2  1  0
 17  7  1  0
 15 13  1  0
M  END
$$$$
