protein_ligand_1
     RDKit          3D

 19 21  0  0  0  0  0  0  0  0999 V2000
    6.3701    4.7934   -7.2397 C   0  0  0  0  0  0  0  0  0  0  0  0
    5.0500    5.3238   -6.8710 N   0  0  0  0  0  0  0  0  0  0  0  0
    3.8924    4.6798   -7.0769 C   0  0  0  0  0  0  0  0  0  0  0  0
    2.8959    5.4542   -6.6200 N   0  0  0  0  0  0  0  0  0  0  0  0
    3.4113    6.5807   -6.1275 C   0  0  0  0  0  0  0  0  0  0  0  0
    2.6660    7.6886   -5.5334 C   0  0  0  0  0  0  0  0  0  0  0  0
    3.4323    8.6791   -4.8569 N   0  0  0  0  0  0  0  0  0  0  0  0
    3.6904    8.6077   -3.5534 C   0  0  0  0  0  0  0  0  0  0  0  0
    3.1289    7.4954   -2.7393 C   0  0  0  0  0  0  0  0  0  0  0  0
    4.2166    7.0256   -1.9629 O   0  0  0  0  0  0  0  0  0  0  0  0
    4.4527    9.5582   -2.9171 N   0  0  0  0  0  0  0  0  0  0  0  0
    4.9807   10.6090   -3.5579 C   0  0  0  0  0  0  0  0  0  0  0  0
    5.8068   11.6416   -2.8758 C   0  0  0  0  0  0  0  0  0  0  0  0
    6.7730   11.1861   -1.8024 C   0  0  0  0  0  0  0  0  0  0  0  0
    5.5556   11.9758   -1.4473 C   0  0  0  0  0  0  0  0  0  0  0  0
    4.7232   10.7008   -4.9105 C   0  0  0  0  0  0  0  0  0  0  0  0
    3.9579    9.7431   -5.5416 C   0  0  0  0  0  0  0  0  0  0  0  0
    3.6951    9.7794   -6.7640 O   0  0  0  0  0  0  0  0  0  0  0  0
    4.7680    6.4875   -6.2908 C   0  0  0  0  0  0  0  0  0  0  0  0
  1  2  1  0
  2  3  1  0
  3  4  2  0
  4  5  1  0
  5  6  1  0
  6  7  1  0
  7  8  1  0
  8  9  1  0
  9 10  1  0
  8 11  2  0
 11 12  1  0
 12 13  1  0
 13 14  1  0
 14 15  1  0
 12 16  2  0
 16 17  1  0
 17 18  2  0
  5 19  2  0
 19  2  1  0
 17  7  1  0
 15 13  1  0
M  END
$$$$
