protein_ligand_1
     RDKit          3D

 19 21  0  0  0  0  0  0  0  0999 V2000
    4.1772    7.9102   -9.8281 C   0  0  0  0  0  0  0  0  0  0  0  0
    3.4125    7.6147   -8.6082 N   0  0  0  0  0  0  0  0  0  0  0  0
    2.3418    6.8092   -8.5639 C   0  0  0  0  0  0  0  0  0  0  0  0
    1.8996    6.7705   -7.2972 N   0  0  0  0  0  0  0  0  0  0  0  0
    2.6793    7.5430   -6.5405 C   0  0  0  0  0  0  0  0  0  0  0  0
    2.5393    7.7746   -5.1043 C   0  0  0  0  0  0  0  0  0  0  0  0
    3.5997    8.4797   -4.4684 N   0  0  0  0  0  0  0  0  0  0  0  0
    4.6384    7.8541   -3.9203 C   0  0  0  0  0  0  0  0  0  0  0  0
    4.6957    6.3669   -3.9097 C   0  0  0  0  0  0  0  0  0  0  0  0
    3.7985    5.9738   -2.8864 O   0  0  0  0  0  0  0  0  0  0  0  0
    5.6681    8.5483   -3.3310 N   0  0  0  0  0  0  0  0  0  0  0  0
    5.6954    9.8858   -3.2683 C   0  0  0  0  0  0  0  0  0  0  0  0
    6.8065   10.6440   -2.6322 C   0  0  0  0  0  0  0  0  0  0  0  0
    7.5386   11.6717   -3.4695 C   0  0  0  0  0  0  0  0  0  0  0  0
    8.2131   10.4045   -3.0558 C   0  0  0  0  0  0  0  0  0  0  0  0
    4.6261   10.5525   -3.8307 C   0  0  0  0  0  0  0  0  0  0  0  0
    3.5972    9.8489   -4.4204 C   0  0  0  0  0  0  0  0  0  0  0  0
    2.6062   10.4041   -4.9439 O   0  0  0  0  0  0  0  0  0  0  0  0
    3.6282    8.0693   -7.3764 C   0  0  0  0  0  0  0  0  0  0  0  0
  1  2  1  0
  2  3  1  0
  3  4  2  0
  4  5  1  0
  5  6  1  0
  6  7  1  0
  7  8  1  0
  8  9  1  0
  9 10  1  0
  8 11  2  0
 11 12  1  0
 12 13  1  0
 13 14  1  0
 14 15  1  0
 12 16  2  0
 16 17  1  0
 17 18  2  0
  5 19  2  0
 19  2  1  0
 17  7  1  0
 15 13  1  0
M  END
$$$$
