protein_ligand_1
     RDKit          3D

 19 21  0  0  0  0  0  0  0  0999 V2000
    2.3656   10.4605   -5.8261 C   0  0  0  0  0  0  0  0  0  0  0  0
    3.5810   10.0648   -5.1007 N   0  0  0  0  0  0  0  0  0  0  0  0
    4.3433    9.0098   -5.4221 C   0  0  0  0  0  0  0  0  0  0  0  0
    5.3631    8.9499   -4.5516 N   0  0  0  0  0  0  0  0  0  0  0  0
    5.2537    9.9557   -3.6835 C   0  0  0  0  0  0  0  0  0  0  0  0
    6.1612   10.2485   -2.5760 C   0  0  0  0  0  0  0  0  0  0  0  0
    5.6909   11.1666   -1.5953 N   0  0  0  0  0  0  0  0  0  0  0  0
    4.9290   10.7839   -0.5737 C   0  0  0  0  0  0  0  0  0  0  0  0
    4.4944    9.3655   -0.4546 C   0  0  0  0  0  0  0  0  0  0  0  0
    4.0417    9.2328    0.8811 O   0  0  0  0  0  0  0  0  0  0  0  0
    4.5020   11.6768    0.3802 N   0  0  0  0  0  0  0  0  0  0  0  0
    4.8192   12.9774    0.3464 C   0  0  0  0  0  0  0  0  0  0  0  0
    4.3607   13.9496    1.3754 C   0  0  0  0  0  0  0  0  0  0  0  0
    2.9196   14.4126    1.3261 C   0  0  0  0  0  0  0  0  0  0  0  0
    4.0334   15.3490    0.9880 C   0  0  0  0  0  0  0  0  0  0  0  0
    5.6081   13.3937   -0.7064 C   0  0  0  0  0  0  0  0  0  0  0  0
    6.0328   12.4919   -1.6591 C   0  0  0  0  0  0  0  0  0  0  0  0
    6.7485   12.8169   -2.6321 O   0  0  0  0  0  0  0  0  0  0  0  0
    4.1282   10.6509   -4.0389 C   0  0  0  0  0  0  0  0  0  0  0  0
  1  2  1  0
  2  3  1  0
  3  4  2  0
  4  5  1  0
  5  6  1  0
  6  7  1  0
  7  8  1  0
  8  9  1  0
  9 10  1  0
  8 11  2  0
 11 12  1  0
 12 13  1  0
 13 14  1  0
 14 15  1  0
 12 16  2  0
 16 17  1  0
 17 18  2  0
  5 19  2  0
 19  2  1  0
 17  7  1  0
 15 13  1  0
M  END
$$$$
