protein_ligand_3
     RDKit          3D

 21 23  0  0  0  0  0  0  0  0999 V2000
    1.3988    6.6047   -8.1644 C   0  0  0  0  0  0  0  0  0  0  0  0
    2.3055    5.9138   -7.2772 N   0  0  0  0  0  0  0  0  0  0  0  0
    2.6097    4.6190   -7.2297 C   0  0  0  0  0  0  0  0  0  0  0  0
    3.5099    4.4146   -6.2355 N   0  0  0  0  0  0  0  0  0  0  0  0
    3.7592    5.6076   -5.6662 C   0  0  0  0  0  0  0  0  0  0  0  0
    4.6889    5.8312   -4.5372 C   0  0  0  0  0  0  0  0  0  0  0  0
    5.0991    7.2284   -4.4429 N   0  0  0  0  0  0  0  0  0  0  0  0
    4.4458    8.0706   -3.6246 C   0  0  0  0  0  0  0  0  0  0  0  0
    3.4774    7.5754   -2.9632 O   0  0  0  0  0  0  0  0  0  0  0  0
    4.8074    9.3431   -3.5275 N   0  0  0  0  0  0  0  0  0  0  0  0
    5.8485    9.8739   -4.2390 C   0  0  0  0  0  0  0  0  0  0  0  0
    6.1757   11.2810   -3.9930 C   0  0  0  0  0  0  0  0  0  0  0  0
    4.9391   12.1249   -3.5965 C   0  0  0  0  0  0  0  0  0  0  0  0
    6.0845   11.9154   -2.6565 C   0  0  0  0  0  0  0  0  0  0  0  0
    6.5365    9.0441   -5.0854 C   0  0  0  0  0  0  0  0  0  0  0  0
    7.6272    9.5319   -5.9287 C   0  0  0  0  0  0  0  0  0  0  0  0
    8.8328    9.4781   -5.6749 O   0  0  0  0  0  0  0  0  0  0  0  0
    7.3189   10.1330   -7.1687 O   0  0  0  0  0  0  0  0  0  0  0  0
    6.1202    7.7207   -5.1510 C   0  0  0  0  0  0  0  0  0  0  0  0
    6.9799    6.6387   -6.2195 Cl  0  0  0  0  0  0  0  0  0  0  0  0
    3.0130    6.4953   -6.3212 N   0  0  0  0  0  0  0  0  0  0  0  0
  1  2  1  0
  2  3  1  0
  3  4  2  0
  4  5  1  0
  5  6  1  0
  6  7  1  0
  7  8  1  0
  8  9  2  0
  8 10  1  0
 10 11  2  0
 11 12  1  0
 12 13  1  0
 13 14  1  0
 11 15  1  0
 15 16  1  0
 16 17  2  0
 16 18  1  0
 15 19  2  0
 19 20  1  0
  5 21  2  0
 21  2  1  0
 19  7  1  0
 14 12  1  0
M  END
$$$$
