protein_ligand_3
     RDKit          3D

 21 23  0  0  0  0  0  0  0  0999 V2000
    9.0142    4.7177   -7.5230 C   0  0  0  0  0  0  0  0  0  0  0  0
    8.1836    4.5852   -6.3485 N   0  0  0  0  0  0  0  0  0  0  0  0
    8.4526    3.9798   -5.1942 C   0  0  0  0  0  0  0  0  0  0  0  0
    7.3799    4.1023   -4.3727 N   0  0  0  0  0  0  0  0  0  0  0  0
    6.4393    4.7956   -5.0389 C   0  0  0  0  0  0  0  0  0  0  0  0
    5.1076    5.1515   -4.5014 C   0  0  0  0  0  0  0  0  0  0  0  0
    4.9860    6.5861   -4.2638 N   0  0  0  0  0  0  0  0  0  0  0  0
    5.3809    7.1129   -3.0924 C   0  0  0  0  0  0  0  0  0  0  0  0
    5.8510    6.2954   -2.2372 O   0  0  0  0  0  0  0  0  0  0  0  0
    5.2774    8.4150   -2.8619 N   0  0  0  0  0  0  0  0  0  0  0  0
    4.7720    9.2924   -3.7820 C   0  0  0  0  0  0  0  0  0  0  0  0
    4.7674   10.7118   -3.4177 C   0  0  0  0  0  0  0  0  0  0  0  0
    4.5034   10.9441   -1.9094 C   0  0  0  0  0  0  0  0  0  0  0  0
    5.7980   11.3324   -2.5518 C   0  0  0  0  0  0  0  0  0  0  0  0
    4.3573    8.7898   -4.9877 C   0  0  0  0  0  0  0  0  0  0  0  0
    3.7520    9.6397   -6.0124 C   0  0  0  0  0  0  0  0  0  0  0  0
    2.5939    9.5746   -6.4312 O   0  0  0  0  0  0  0  0  0  0  0  0
    4.5326   10.6518   -6.6126 O   0  0  0  0  0  0  0  0  0  0  0  0
    4.4872    7.4206   -5.1810 C   0  0  0  0  0  0  0  0  0  0  0  0
    3.9692    6.7516   -6.7092 Cl  0  0  0  0  0  0  0  0  0  0  0  0
    6.9584    5.0731   -6.2337 N   0  0  0  0  0  0  0  0  0  0  0  0
  1  2  1  0
  2  3  1  0
  3  4  2  0
  4  5  1  0
  5  6  1  0
  6  7  1  0
  7  8  1  0
  8  9  2  0
  8 10  1  0
 10 11  2  0
 11 12  1  0
 12 13  1  0
 13 14  1  0
 11 15  1  0
 15 16  1  0
 16 17  2  0
 16 18  1  0
 15 19  2  0
 19 20  1  0
  5 21  2  0
 21  2  1  0
 19  7  1  0
 14 12  1  0
M  END
$$$$
