protein_ligand_3
     RDKit          3D

 21 23  0  0  0  0  0  0  0  0999 V2000
    9.0318    2.7457   -4.2831 C   0  0  0  0  0  0  0  0  0  0  0  0
    7.9622    3.5838   -4.7732 N   0  0  0  0  0  0  0  0  0  0  0  0
    7.9115    4.3173   -5.8826 C   0  0  0  0  0  0  0  0  0  0  0  0
    6.7100    4.9445   -5.9410 N   0  0  0  0  0  0  0  0  0  0  0  0
    6.0151    4.5866   -4.8463 C   0  0  0  0  0  0  0  0  0  0  0  0
    4.6482    5.0495   -4.5202 C   0  0  0  0  0  0  0  0  0  0  0  0
    4.5822    6.5027   -4.4058 N   0  0  0  0  0  0  0  0  0  0  0  0
    4.9580    7.1086   -3.2669 C   0  0  0  0  0  0  0  0  0  0  0  0
    5.3604    6.3466   -2.3298 O   0  0  0  0  0  0  0  0  0  0  0  0
    4.9044    8.4286   -3.1480 N   0  0  0  0  0  0  0  0  0  0  0  0
    4.4717    9.2463   -4.1560 C   0  0  0  0  0  0  0  0  0  0  0  0
    4.5174   10.6902   -3.9095 C   0  0  0  0  0  0  0  0  0  0  0  0
    4.4624   11.0444   -2.4029 C   0  0  0  0  0  0  0  0  0  0  0  0
    5.6570   11.3660   -3.2450 C   0  0  0  0  0  0  0  0  0  0  0  0
    4.0785    8.6625   -5.3319 C   0  0  0  0  0  0  0  0  0  0  0  0
    3.5485    9.4482   -6.4457 C   0  0  0  0  0  0  0  0  0  0  0  0
    4.1644   10.2788   -7.1177 O   0  0  0  0  0  0  0  0  0  0  0  0
    2.2005    9.2732   -6.8280 O   0  0  0  0  0  0  0  0  0  0  0  0
    4.1540    7.2776   -5.4072 C   0  0  0  0  0  0  0  0  0  0  0  0
    3.6617    6.5055   -6.8947 Cl  0  0  0  0  0  0  0  0  0  0  0  0
    6.8027    3.7611   -4.1594 N   0  0  0  0  0  0  0  0  0  0  0  0
  1  2  1  0
  2  3  1  0
  3  4  2  0
  4  5  1  0
  5  6  1  0
  6  7  1  0
  7  8  1  0
  8  9  2  0
  8 10  1  0
 10 11  2  0
 11 12  1  0
 12 13  1  0
 13 14  1  0
 11 15  1  0
 15 16  1  0
 16 17  2  0
 16 18  1  0
 15 19  2  0
 19 20  1  0
  5 21  2  0
 21  2  1  0
 19  7  1  0
 14 12  1  0
M  END
$$$$
