protein_ligand_3
     RDKit          3D

 21 23  0  0  0  0  0  0  0  0999 V2000
    1.3340    7.2942   -3.6462 C   0  0  0  0  0  0  0  0  0  0  0  0
    2.3966    7.6684   -4.5504 N   0  0  0  0  0  0  0  0  0  0  0  0
    2.5653    7.3402   -5.8292 C   0  0  0  0  0  0  0  0  0  0  0  0
    3.7054    7.9173   -6.2849 N   0  0  0  0  0  0  0  0  0  0  0  0
    4.2419    8.6103   -5.2645 C   0  0  0  0  0  0  0  0  0  0  0  0
    5.4961    9.3918   -5.3364 C   0  0  0  0  0  0  0  0  0  0  0  0
    5.6913   10.2121   -4.1455 N   0  0  0  0  0  0  0  0  0  0  0  0
    5.0833   11.4058   -4.0402 C   0  0  0  0  0  0  0  0  0  0  0  0
    4.3518   11.7538   -5.0223 O   0  0  0  0  0  0  0  0  0  0  0  0
    5.2503   12.1624   -2.9636 N   0  0  0  0  0  0  0  0  0  0  0  0
    6.0367   11.7870   -1.9089 C   0  0  0  0  0  0  0  0  0  0  0  0
    6.0874   12.6938   -0.7588 C   0  0  0  0  0  0  0  0  0  0  0  0
    5.5119   14.0966   -1.0740 C   0  0  0  0  0  0  0  0  0  0  0  0
    4.8777   13.1934   -0.0633 C   0  0  0  0  0  0  0  0  0  0  0  0
    6.6741   10.5760   -1.9828 C   0  0  0  0  0  0  0  0  0  0  0  0
    7.5792   10.1135   -0.9313 C   0  0  0  0  0  0  0  0  0  0  0  0
    7.3222   10.0206    0.2712 O   0  0  0  0  0  0  0  0  0  0  0  0
    8.8909    9.7226   -1.2787 O   0  0  0  0  0  0  0  0  0  0  0  0
    6.4667    9.8206   -3.1297 C   0  0  0  0  0  0  0  0  0  0  0  0
    7.2643    8.2713   -3.2510 Cl  0  0  0  0  0  0  0  0  0  0  0  0
    3.4238    8.4386   -4.2277 N   0  0  0  0  0  0  0  0  0  0  0  0
  1  2  1  0
  2  3  1  0
  3  4  2  0
  4  5  1  0
  5  6  1  0
  6  7  1  0
  7  8  1  0
  8  9  2  0
  8 10  1  0
 10 11  2  0
 11 12  1  0
 12 13  1  0
 13 14  1  0
 11 15  1  0
 15 16  1  0
 16 17  2  0
 16 18  1  0
 15 19  2  0
 19 20  1  0
  5 21  2  0
 21  2  1  0
 19  7  1  0
 14 12  1  0
M  END
$$$$
