protein_ligand_3
     RDKit          3D

 21 23  0  0  0  0  0  0  0  0999 V2000
    5.9595    0.7500   -4.5919 C   0  0  0  0  0  0  0  0  0  0  0  0
    6.6889    1.9415   -4.9595 N   0  0  0  0  0  0  0  0  0  0  0  0
    7.9935    2.1886   -4.8689 C   0  0  0  0  0  0  0  0  0  0  0  0
    8.2374    3.4407   -5.3308 N   0  0  0  0  0  0  0  0  0  0  0  0
    7.0590    3.9668   -5.7102 C   0  0  0  0  0  0  0  0  0  0  0  0
    6.8775    5.3222   -6.2747 C   0  0  0  0  0  0  0  0  0  0  0  0
    5.4681    5.6934   -6.3480 N   0  0  0  0  0  0  0  0  0  0  0  0
    4.7515    5.4115   -7.4491 C   0  0  0  0  0  0  0  0  0  0  0  0
    5.3728    4.8187   -8.3889 O   0  0  0  0  0  0  0  0  0  0  0  0
    3.4695    5.7418   -7.5303 N   0  0  0  0  0  0  0  0  0  0  0  0
    2.8031    6.3789   -6.5194 C   0  0  0  0  0  0  0  0  0  0  0  0
    1.3739    6.6339   -6.7195 C   0  0  0  0  0  0  0  0  0  0  0  0
    1.0102    6.8827   -8.2042 C   0  0  0  0  0  0  0  0  0  0  0  0
    0.4767    5.7063   -7.4486 C   0  0  0  0  0  0  0  0  0  0  0  0
    3.5034    6.6840   -5.3815 C   0  0  0  0  0  0  0  0  0  0  0  0
    2.8931    7.4133   -4.2704 C   0  0  0  0  0  0  0  0  0  0  0  0
    1.6875    7.5138   -4.0313 O   0  0  0  0  0  0  0  0  0  0  0  0
    3.7276    8.0868   -3.3517 O   0  0  0  0  0  0  0  0  0  0  0  0
    4.8423    6.3166   -5.3448 C   0  0  0  0  0  0  0  0  0  0  0  0
    5.7599    6.6903   -3.9061 Cl  0  0  0  0  0  0  0  0  0  0  0  0
    6.1406    3.0321   -5.4719 N   0  0  0  0  0  0  0  0  0  0  0  0
  1  2  1  0
  2  3  1  0
  3  4  2  0
  4  5  1  0
  5  6  1  0
  6  7  1  0
  7  8  1  0
  8  9  2  0
  8 10  1  0
 10 11  2  0
 11 12  1  0
 12 13  1  0
 13 14  1  0
 11 15  1  0
 15 16  1  0
 16 17  2  0
 16 18  1  0
 15 19  2  0
 19 20  1  0
  5 21  2  0
 21  2  1  0
 19  7  1  0
 14 12  1  0
M  END
$$$$
