protein_ligand_3
     RDKit          3D

 21 23  0  0  0  0  0  0  0  0999 V2000
    9.1083   11.1786   -8.2904 C   0  0  0  0  0  0  0  0  0  0  0  0
    9.2543   10.2525   -7.1914 N   0  0  0  0  0  0  0  0  0  0  0  0
   10.3664    9.7993   -6.6177 C   0  0  0  0  0  0  0  0  0  0  0  0
   10.0298    8.9444   -5.6195 N   0  0  0  0  0  0  0  0  0  0  0  0
    8.6869    8.8751   -5.5842 C   0  0  0  0  0  0  0  0  0  0  0  0
    7.9046    8.0505   -4.6372 C   0  0  0  0  0  0  0  0  0  0  0  0
    6.8957    8.8398   -3.9382 N   0  0  0  0  0  0  0  0  0  0  0  0
    7.2669    9.8403   -3.1218 C   0  0  0  0  0  0  0  0  0  0  0  0
    8.5191   10.0393   -3.0080 O   0  0  0  0  0  0  0  0  0  0  0  0
    6.3616   10.5671   -2.4802 N   0  0  0  0  0  0  0  0  0  0  0  0
    5.0161   10.3521   -2.6034 C   0  0  0  0  0  0  0  0  0  0  0  0
    4.1258   11.2656   -1.8819 C   0  0  0  0  0  0  0  0  0  0  0  0
    4.7597   11.8208   -0.5826 C   0  0  0  0  0  0  0  0  0  0  0  0
    4.3988   12.7142   -1.7276 C   0  0  0  0  0  0  0  0  0  0  0  0
    4.6010    9.3381   -3.4267 C   0  0  0  0  0  0  0  0  0  0  0  0
    3.1873    8.9958   -3.5793 C   0  0  0  0  0  0  0  0  0  0  0  0
    2.2686    9.7719   -3.8520 O   0  0  0  0  0  0  0  0  0  0  0  0
    2.7844    7.6535   -3.4065 O   0  0  0  0  0  0  0  0  0  0  0  0
    5.5869    8.6069   -4.0766 C   0  0  0  0  0  0  0  0  0  0  0  0
    5.0877    7.3096   -5.1346 Cl  0  0  0  0  0  0  0  0  0  0  0  0
    8.2476    9.6800   -6.5501 N   0  0  0  0  0  0  0  0  0  0  0  0
  1  2  1  0
  2  3  1  0
  3  4  2  0
  4  5  1  0
  5  6  1  0
  6  7  1  0
  7  8  1  0
  8  9  2  0
  8 10  1  0
 10 11  2  0
 11 12  1  0
 12 13  1  0
 13 14  1  0
 11 15  1  0
 15 16  1  0
 16 17  2  0
 16 18  1  0
 15 19  2  0
 19 20  1  0
  5 21  2  0
 21  2  1  0
 19  7  1  0
 14 12  1  0
M  END
$$$$
