protein_ligand_4
     RDKit          3D

 22 23  0  0  0  0  0  0  0  0999 V2000
    4.7783    7.9077   -3.2321 C   0  0  0  0  0  0  0  0  0  0  0  0
    4.7223    9.3502   -3.7463 C   0  0  0  0  0  0  0  0  0  0  0  0
    3.3435    9.8806   -3.5406 C   0  0  0  0  0  0  0  0  0  0  0  0
    5.0252    9.2831   -5.2013 C   0  0  0  0  0  0  0  0  0  0  0  0
    5.7275   10.2041   -2.9398 C   0  0  2  0  0  0  0  0  0  0  0  0
    6.9644    9.3994   -3.0918 N   0  0  0  0  0  0  0  0  0  0  0  0
    8.2036   10.0443   -3.1331 C   0  0  0  0  0  0  0  0  0  0  0  0
    8.3295   11.2989   -3.2001 O   0  0  0  0  0  0  0  0  0  0  0  0
    9.4294    9.2100   -3.0961 C   0  0  0  0  0  0  0  0  0  0  0  0
    9.5106    8.5045   -4.3002 F   0  0  0  0  0  0  0  0  0  0  0  0
   10.5081   10.0138   -2.8844 F   0  0  0  0  0  0  0  0  0  0  0  0
    9.3113    8.2874   -2.0675 F   0  0  0  0  0  0  0  0  0  0  0  0
    5.4115   10.2195   -1.5038 C   0  0  0  0  0  0  0  0  0  0  0  0
    5.7876    9.1750   -0.8487 O   0  0  0  0  0  0  0  0  0  0  0  0
    4.7606   11.2229   -0.7688 N   0  0  0  0  0  0  0  0  0  0  0  0
    4.5695   10.9925    0.6830 C   0  0  0  0  0  0  0  0  0  0  0  0
    4.3415   12.3175    1.3534 C   0  0  0  0  0  0  0  0  0  0  0  0
    2.9837   12.8753    0.9145 C   0  0  0  0  0  0  0  0  0  0  0  0
    2.8871   12.6886   -0.5820 C   0  0  0  0  0  0  0  0  0  0  0  0
    4.2707   12.4869   -1.2046 C   0  0  0  0  0  0  0  0  0  0  0  0
    5.1473   13.5730   -0.5548 C   0  0  0  0  0  0  0  0  0  0  0  0
    5.3556   13.3486    0.9022 C   0  0  0  0  0  0  0  0  0  0  0  0
  1  2  1  0
  2  3  1  0
  2  4  1  0
  2  5  1  0
  5  6  1  1
  6  7  1  0
  7  8  2  0
  7  9  1  0
  9 10  1  0
  9 11  1  0
  9 12  1  0
  5 13  1  0
 13 14  2  0
 13 15  1  0
 15 16  1  0
 16 17  1  0
 17 18  1  0
 18 19  1  0
 19 20  1  0
 20 21  1  0
 21 22  1  0
 20 15  1  0
 22 17  1  0
M  END
$$$$
