protein_ligand_4
     RDKit          3D

 22 23  0  0  0  0  0  0  0  0999 V2000
    5.5738    8.2658   -3.4453 C   0  0  0  0  0  0  0  0  0  0  0  0
    5.8521    9.7072   -3.8846 C   0  0  0  0  0  0  0  0  0  0  0  0
    4.5577   10.3630   -4.2300 C   0  0  0  0  0  0  0  0  0  0  0  0
    6.7088    9.6123   -5.0972 C   0  0  0  0  0  0  0  0  0  0  0  0
    6.5154   10.4646   -2.7113 C   0  0  2  0  0  0  0  0  0  0  0  0
    7.5573    9.4910   -2.3024 N   0  0  0  0  0  0  0  0  0  0  0  0
    8.8317    9.9510   -1.9596 C   0  0  0  0  0  0  0  0  0  0  0  0
    9.2105   11.1416   -2.1423 O   0  0  0  0  0  0  0  0  0  0  0  0
    9.7836    8.9900   -1.3512 C   0  0  0  0  0  0  0  0  0  0  0  0
   10.7902    8.7262   -2.2847 F   0  0  0  0  0  0  0  0  0  0  0  0
   10.2669    9.5163   -0.1920 F   0  0  0  0  0  0  0  0  0  0  0  0
    9.1164    7.8015   -1.0951 F   0  0  0  0  0  0  0  0  0  0  0  0
    5.6065   10.6118   -1.5650 C   0  0  0  0  0  0  0  0  0  0  0  0
    4.9936    9.5349   -1.2096 O   0  0  0  0  0  0  0  0  0  0  0  0
    5.3312   11.7682   -0.8182 N   0  0  0  0  0  0  0  0  0  0  0  0
    5.8827   13.0511   -1.3155 C   0  0  0  0  0  0  0  0  0  0  0  0
    5.0930   14.1785   -0.7134 C   0  0  0  0  0  0  0  0  0  0  0  0
    5.3782   14.2444    0.7904 C   0  0  0  0  0  0  0  0  0  0  0  0
    5.3170   12.8299    1.3187 C   0  0  0  0  0  0  0  0  0  0  0  0
    4.5483   11.9151    0.3622 C   0  0  0  0  0  0  0  0  0  0  0  0
    3.2907   12.7200   -0.0129 C   0  0  0  0  0  0  0  0  0  0  0  0
    3.6024   13.9306   -0.8215 C   0  0  0  0  0  0  0  0  0  0  0  0
  1  2  1  0
  2  3  1  0
  2  4  1  0
  2  5  1  0
  5  6  1  1
  6  7  1  0
  7  8  2  0
  7  9  1  0
  9 10  1  0
  9 11  1  0
  9 12  1  0
  5 13  1  0
 13 14  2  0
 13 15  1  0
 15 16  1  0
 16 17  1  0
 17 18  1  0
 18 19  1  0
 19 20  1  0
 20 21  1  0
 21 22  1  0
 20 15  1  0
 22 17  1  0
M  END
$$$$
