protein_ligand_4
     RDKit          3D

 24 25  0  0  0  0  0  0  0  0999 V2000
    6.1480   12.4387   -3.7268 C   0  0  0  0  0  0  0  0  0  0  0  0
    6.7963   11.0953   -3.3539 C   0  0  0  0  0  0  0  0  0  0  0  0
    7.5679   11.3483   -2.0966 C   0  0  0  0  0  0  0  0  0  0  0  0
    7.7669   10.7413   -4.4579 C   0  0  0  0  0  0  0  0  0  0  0  0
    5.7033   10.0430   -3.2007 C   0  0  1  0  0  0  0  0  0  0  0  0
    4.7625   10.4547   -2.2253 N   0  0  0  0  0  0  0  0  0  0  0  0
    4.6510    9.7870   -0.9492 C   0  0  0  0  0  0  0  0  0  0  0  0
    5.4076    8.8176   -0.7046 O   0  0  0  0  0  0  0  0  0  0  0  0
    3.6763   10.2137    0.0666 C   0  0  0  0  0  0  0  0  0  0  0  0
    3.7764    9.4221    1.2190 F   0  0  0  0  0  0  0  0  0  0  0  0
    2.4061   10.0587   -0.4436 F   0  0  0  0  0  0  0  0  0  0  0  0
    3.8210   11.5513    0.3881 F   0  0  0  0  0  0  0  0  0  0  0  0
    5.2232    9.5280   -4.4789 C   0  0  0  0  0  0  0  0  0  0  0  0
    4.4331   10.3589   -5.0794 O   0  0  0  0  0  0  0  0  0  0  0  0
    5.4674    8.3252   -5.1439 N   0  0  0  0  0  0  0  0  0  0  0  0
    6.3856    7.2973   -4.7312 C   0  0  0  0  0  0  0  0  0  0  0  0
    5.4813    6.0770   -4.4388 C   0  0  0  0  0  0  0  0  0  0  0  0
    4.8968    5.7150   -5.6853 O   0  0  0  0  0  0  0  0  0  0  0  0
    4.4683    6.6484   -6.5935 C   0  0  0  0  0  0  0  0  0  0  0  0
    3.7814    6.3280   -7.7318 C   0  0  0  0  0  0  0  0  0  0  0  0
    3.3636    7.3221   -8.6307 C   0  0  0  0  0  0  0  0  0  0  0  0
    3.6515    8.6475   -8.3618 C   0  0  0  0  0  0  0  0  0  0  0  0
    4.3520    8.9792   -7.2030 C   0  0  0  0  0  0  0  0  0  0  0  0
    4.7401    7.9873   -6.3536 C   0  0  0  0  0  0  0  0  0  0  0  0
  1  2  1  0
  2  3  1  0
  2  4  1  0
  2  5  1  0
  5  6  1  6
  6  7  1  0
  7  8  2  0
  7  9  1  0
  9 10  1  0
  9 11  1  0
  9 12  1  0
  5 13  1  0
 13 14  2  0
 13 15  1  0
 15 16  1  0
 16 17  1  0
 17 18  1  0
 18 19  1  0
 19 20  2  0
 20 21  1  0
 21 22  2  0
 22 23  1  0
 23 24  2  0
 24 15  1  0
 24 19  1  0
M  END
$$$$
