protein_ligand_4
     RDKit          3D

 22 23  0  0  0  0  0  0  0  0999 V2000
    4.5655   10.9042   -3.8620 C   0  0  0  0  0  0  0  0  0  0  0  0
    5.9185   10.3780   -3.3715 C   0  0  0  0  0  0  0  0  0  0  0  0
    6.9655   10.7387   -4.3708 C   0  0  0  0  0  0  0  0  0  0  0  0
    5.7838    8.8985   -3.2937 C   0  0  0  0  0  0  0  0  0  0  0  0
    6.2491   11.0452   -2.0167 C   0  0  2  0  0  0  0  0  0  0  0  0
    7.3948   10.2166   -1.5681 N   0  0  0  0  0  0  0  0  0  0  0  0
    8.5696   10.8412   -1.1406 C   0  0  0  0  0  0  0  0  0  0  0  0
    8.7664   12.0849   -1.2348 O   0  0  0  0  0  0  0  0  0  0  0  0
    9.6358    9.9979   -0.5473 C   0  0  0  0  0  0  0  0  0  0  0  0
    9.6948   10.2727    0.8221 F   0  0  0  0  0  0  0  0  0  0  0  0
    9.3653    8.6893   -0.8094 F   0  0  0  0  0  0  0  0  0  0  0  0
   10.8527   10.3562   -1.1077 F   0  0  0  0  0  0  0  0  0  0  0  0
    5.1779   10.8492   -1.0287 C   0  0  0  0  0  0  0  0  0  0  0  0
    4.7345    9.6426   -0.9333 O   0  0  0  0  0  0  0  0  0  0  0  0
    4.5892   11.8046   -0.1852 N   0  0  0  0  0  0  0  0  0  0  0  0
    5.0766   13.2007   -0.2879 C   0  0  0  0  0  0  0  0  0  0  0  0
    4.0307   14.1173    0.2804 C   0  0  0  0  0  0  0  0  0  0  0  0
    3.9394   13.8979    1.7939 C   0  0  0  0  0  0  0  0  0  0  0  0
    3.9334   12.4051    2.0290 C   0  0  0  0  0  0  0  0  0  0  0  0
    3.5360   11.6470    0.7601 C   0  0  0  0  0  0  0  0  0  0  0  0
    2.3124   12.4112    0.2224 C   0  0  0  0  0  0  0  0  0  0  0  0
    2.6521   13.7814   -0.2504 C   0  0  0  0  0  0  0  0  0  0  0  0
  1  2  1  0
  2  3  1  0
  2  4  1  0
  2  5  1  0
  5  6  1  1
  6  7  1  0
  7  8  2  0
  7  9  1  0
  9 10  1  0
  9 11  1  0
  9 12  1  0
  5 13  1  0
 13 14  2  0
 13 15  1  0
 15 16  1  0
 16 17  1  0
 17 18  1  0
 18 19  1  0
 19 20  1  0
 20 21  1  0
 21 22  1  0
 20 15  1  0
 22 17  1  0
M  END
$$$$
