protein_ligand_4
     RDKit          3D

 24 25  0  0  0  0  0  0  0  0999 V2000
    8.4714   10.5224   -3.2959 C   0  0  0  0  0  0  0  0  0  0  0  0
    7.7404    9.1697   -3.2833 C   0  0  0  0  0  0  0  0  0  0  0  0
    8.3366    8.3930   -2.1513 C   0  0  0  0  0  0  0  0  0  0  0  0
    8.0689    8.4676   -4.5816 C   0  0  0  0  0  0  0  0  0  0  0  0
    6.2430    9.4167   -3.1351 C   0  0  1  0  0  0  0  0  0  0  0  0
    5.5386    8.1889   -3.1813 N   0  0  0  0  0  0  0  0  0  0  0  0
    4.2715    8.0662   -3.8639 C   0  0  0  0  0  0  0  0  0  0  0  0
    3.8583    9.0295   -4.5519 O   0  0  0  0  0  0  0  0  0  0  0  0
    3.4567    6.8448   -3.7727 C   0  0  0  0  0  0  0  0  0  0  0  0
    3.8361    6.0723   -2.6664 F   0  0  0  0  0  0  0  0  0  0  0  0
    3.6610    6.0887   -4.9060 F   0  0  0  0  0  0  0  0  0  0  0  0
    2.1046    7.1316   -3.7179 F   0  0  0  0  0  0  0  0  0  0  0  0
    5.9242   10.3804   -2.0867 C   0  0  0  0  0  0  0  0  0  0  0  0
    5.6348    9.8077   -0.9626 O   0  0  0  0  0  0  0  0  0  0  0  0
    5.8818   11.7757   -2.0923 N   0  0  0  0  0  0  0  0  0  0  0  0
    6.2166   12.6315   -3.1992 C   0  0  0  0  0  0  0  0  0  0  0  0
    4.8873   13.3441   -3.5422 C   0  0  0  0  0  0  0  0  0  0  0  0
    4.5671   14.1428   -2.4083 O   0  0  0  0  0  0  0  0  0  0  0  0
    4.7672   13.7073   -1.1238 C   0  0  0  0  0  0  0  0  0  0  0  0
    4.3417   14.3972   -0.0224 C   0  0  0  0  0  0  0  0  0  0  0  0
    4.5711   13.9077    1.2732 C   0  0  0  0  0  0  0  0  0  0  0  0
    5.2387   12.7083    1.4395 C   0  0  0  0  0  0  0  0  0  0  0  0
    5.6748   12.0014    0.3198 C   0  0  0  0  0  0  0  0  0  0  0  0
    5.4331   12.5073   -0.9219 C   0  0  0  0  0  0  0  0  0  0  0  0
  1  2  1  0
  2  3  1  0
  2  4  1  0
  2  5  1  0
  5  6  1  1
  6  7  1  0
  7  8  2  0
  7  9  1  0
  9 10  1  0
  9 11  1  0
  9 12  1  0
  5 13  1  0
 13 14  2  0
 13 15  1  0
 15 16  1  0
 16 17  1  0
 17 18  1  0
 18 19  1  0
 19 20  2  0
 20 21  1  0
 21 22  2  0
 22 23  1  0
 23 24  2  0
 24 15  1  0
 24 19  1  0
M  END
$$$$
