protein_ligand_4
     RDKit          3D

 24 25  0  0  0  0  0  0  0  0999 V2000
    8.6995    8.0620   -2.5882 C   0  0  0  0  0  0  0  0  0  0  0  0
    8.2146    9.2939   -3.3700 C   0  0  0  0  0  0  0  0  0  0  0  0
    8.5030    9.0044   -4.8099 C   0  0  0  0  0  0  0  0  0  0  0  0
    9.0601   10.4681   -2.9309 C   0  0  0  0  0  0  0  0  0  0  0  0
    6.7355    9.5181   -3.0744 C   0  0  1  0  0  0  0  0  0  0  0  0
    6.0592    8.2761   -2.9981 N   0  0  0  0  0  0  0  0  0  0  0  0
    4.9588    7.9560   -3.8774 C   0  0  0  0  0  0  0  0  0  0  0  0
    4.6754    8.7488   -4.8065 O   0  0  0  0  0  0  0  0  0  0  0  0
    4.1653    6.7285   -3.7113 C   0  0  0  0  0  0  0  0  0  0  0  0
    3.2558    6.5746   -4.7666 F   0  0  0  0  0  0  0  0  0  0  0  0
    3.4435    6.8208   -2.5415 F   0  0  0  0  0  0  0  0  0  0  0  0
    4.9687    5.6078   -3.6017 F   0  0  0  0  0  0  0  0  0  0  0  0
    6.5057   10.5178   -2.0366 C   0  0  0  0  0  0  0  0  0  0  0  0
    6.5400   10.0096   -0.8467 O   0  0  0  0  0  0  0  0  0  0  0  0
    6.2637   11.8907   -2.1097 N   0  0  0  0  0  0  0  0  0  0  0  0
    6.4436   12.7246   -3.2682 C   0  0  0  0  0  0  0  0  0  0  0  0
    5.0175   13.2222   -3.6015 C   0  0  0  0  0  0  0  0  0  0  0  0
    4.6157   14.0272   -2.4984 O   0  0  0  0  0  0  0  0  0  0  0  0
    4.9094   13.6939   -1.2014 C   0  0  0  0  0  0  0  0  0  0  0  0
    4.4181   14.3748   -0.1218 C   0  0  0  0  0  0  0  0  0  0  0  0
    4.7487   13.9929    1.1880 C   0  0  0  0  0  0  0  0  0  0  0  0
    5.5854   12.9109    1.3911 C   0  0  0  0  0  0  0  0  0  0  0  0
    6.0891   12.2139    0.2938 C   0  0  0  0  0  0  0  0  0  0  0  0
    5.7453   12.6131   -0.9626 C   0  0  0  0  0  0  0  0  0  0  0  0
  1  2  1  0
  2  3  1  0
  2  4  1  0
  2  5  1  0
  5  6  1  1
  6  7  1  0
  7  8  2  0
  7  9  1  0
  9 10  1  0
  9 11  1  0
  9 12  1  0
  5 13  1  0
 13 14  2  0
 13 15  1  0
 15 16  1  0
 16 17  1  0
 17 18  1  0
 18 19  1  0
 19 20  2  0
 20 21  1  0
 21 22  2  0
 22 23  1  0
 23 24  2  0
 24 15  1  0
 24 19  1  0
M  END
$$$$
