protein_ligand_4
     RDKit          3D

 24 25  0  0  0  0  0  0  0  0999 V2000
    8.4688    7.8292   -3.1540 C   0  0  0  0  0  0  0  0  0  0  0  0
    7.7732    8.9257   -3.9774 C   0  0  0  0  0  0  0  0  0  0  0  0
    7.7393    8.4204   -5.3858 C   0  0  0  0  0  0  0  0  0  0  0  0
    8.6510   10.1557   -3.9226 C   0  0  0  0  0  0  0  0  0  0  0  0
    6.3919    9.1879   -3.3871 C   0  0  1  0  0  0  0  0  0  0  0  0
    5.6518    7.9822   -3.3222 N   0  0  0  0  0  0  0  0  0  0  0  0
    4.3681    7.8440   -3.9701 C   0  0  0  0  0  0  0  0  0  0  0  0
    3.9487    8.7811   -4.6898 O   0  0  0  0  0  0  0  0  0  0  0  0
    3.5436    6.6366   -3.8078 C   0  0  0  0  0  0  0  0  0  0  0  0
    3.2629    6.4011   -2.4549 F   0  0  0  0  0  0  0  0  0  0  0  0
    4.2440    5.5522   -4.2890 F   0  0  0  0  0  0  0  0  0  0  0  0
    2.3700    6.7136   -4.5360 F   0  0  0  0  0  0  0  0  0  0  0  0
    6.4262   10.0648   -2.2212 C   0  0  0  0  0  0  0  0  0  0  0  0
    6.8685    9.4624   -1.1644 O   0  0  0  0  0  0  0  0  0  0  0  0
    6.0736   11.4058   -2.0596 N   0  0  0  0  0  0  0  0  0  0  0  0
    5.7161   12.3228   -3.1090 C   0  0  0  0  0  0  0  0  0  0  0  0
    4.2422   12.6842   -2.8099 C   0  0  0  0  0  0  0  0  0  0  0  0
    4.2529   13.3734   -1.5644 O   0  0  0  0  0  0  0  0  0  0  0  0
    5.0615   12.9957   -0.5237 C   0  0  0  0  0  0  0  0  0  0  0  0
    4.9902   13.5535    0.7229 C   0  0  0  0  0  0  0  0  0  0  0  0
    5.8413   13.1307    1.7562 C   0  0  0  0  0  0  0  0  0  0  0  0
    6.7677   12.1341    1.5103 C   0  0  0  0  0  0  0  0  0  0  0  0
    6.8445   11.5626    0.2411 C   0  0  0  0  0  0  0  0  0  0  0  0
    6.0013   11.9979   -0.7365 C   0  0  0  0  0  0  0  0  0  0  0  0
  1  2  1  0
  2  3  1  0
  2  4  1  0
  2  5  1  0
  5  6  1  1
  6  7  1  0
  7  8  2  0
  7  9  1  0
  9 10  1  0
  9 11  1  0
  9 12  1  0
  5 13  1  0
 13 14  2  0
 13 15  1  0
 15 16  1  0
 16 17  1  0
 17 18  1  0
 18 19  1  0
 19 20  2  0
 20 21  1  0
 21 22  2  0
 22 23  1  0
 23 24  2  0
 24 15  1  0
 24 19  1  0
M  END
$$$$
