protein_ligand_4
     RDKit          3D

 22 23  0  0  0  0  0  0  0  0999 V2000
    7.5959   10.8842   -3.9318 C   0  0  0  0  0  0  0  0  0  0  0  0
    6.7347    9.6662   -4.2825 C   0  0  0  0  0  0  0  0  0  0  0  0
    7.6324    8.5216   -4.6123 C   0  0  0  0  0  0  0  0  0  0  0  0
    5.9446   10.0498   -5.4833 C   0  0  0  0  0  0  0  0  0  0  0  0
    5.8666    9.3022   -3.0562 C   0  0  2  0  0  0  0  0  0  0  0  0
    5.0171    8.2263   -3.6232 N   0  0  0  0  0  0  0  0  0  0  0  0
    4.4710    7.2612   -2.7729 C   0  0  0  0  0  0  0  0  0  0  0  0
    4.8424    7.1023   -1.5766 O   0  0  0  0  0  0  0  0  0  0  0  0
    3.4021    6.3816   -3.3058 C   0  0  0  0  0  0  0  0  0  0  0  0
    2.4050    7.1937   -3.8539 F   0  0  0  0  0  0  0  0  0  0  0  0
    3.9431    5.5265   -4.2171 F   0  0  0  0  0  0  0  0  0  0  0  0
    2.8436    5.6698   -2.2548 F   0  0  0  0  0  0  0  0  0  0  0  0
    4.9601   10.3961   -2.6771 C   0  0  0  0  0  0  0  0  0  0  0  0
    4.0123   10.6381   -3.5166 O   0  0  0  0  0  0  0  0  0  0  0  0
    4.9997   11.1965   -1.5245 N   0  0  0  0  0  0  0  0  0  0  0  0
    6.1429   11.0084   -0.6000 C   0  0  0  0  0  0  0  0  0  0  0  0
    6.2802   12.2394    0.2502 C   0  0  0  0  0  0  0  0  0  0  0  0
    5.0827   12.3287    1.2017 C   0  0  0  0  0  0  0  0  0  0  0  0
    3.8440   12.0300    0.3894 C   0  0  0  0  0  0  0  0  0  0  0  0
    4.1042   12.2218   -1.1067 C   0  0  0  0  0  0  0  0  0  0  0  0
    4.8579   13.5611   -1.1979 C   0  0  0  0  0  0  0  0  0  0  0  0
    6.2140   13.5007   -0.5862 C   0  0  0  0  0  0  0  0  0  0  0  0
  1  2  1  0
  2  3  1  0
  2  4  1  0
  2  5  1  0
  5  6  1  6
  6  7  1  0
  7  8  2  0
  7  9  1  0
  9 10  1  0
  9 11  1  0
  9 12  1  0
  5 13  1  0
 13 14  2  0
 13 15  1  0
 15 16  1  0
 16 17  1  0
 17 18  1  0
 18 19  1  0
 19 20  1  0
 20 21  1  0
 21 22  1  0
 20 15  1  0
 22 17  1  0
M  END
$$$$
