protein_ligand_0
     RDKit          3D

 18 20  0  0  0  0  0  0  0  0999 V2000
    3.9208    6.5126   -8.6280 C   0  0  0  0  0  0  0  0  0  0  0  0
    4.0454    6.2329   -7.2075 N   0  0  0  0  0  0  0  0  0  0  0  0
    4.4061    5.0507   -6.6879 C   0  0  0  0  0  0  0  0  0  0  0  0
    4.3950    5.2281   -5.3424 N   0  0  0  0  0  0  0  0  0  0  0  0
    4.0360    6.4888   -5.0480 C   0  0  0  0  0  0  0  0  0  0  0  0
    3.8820    7.1524   -3.7369 C   0  0  0  0  0  0  0  0  0  0  0  0
    4.6036    8.3832   -3.6337 N   0  0  0  0  0  0  0  0  0  0  0  0
    5.8991    8.4798   -3.2913 C   0  0  0  0  0  0  0  0  0  0  0  0
    6.8024    7.3527   -2.9639 C   0  0  0  0  0  0  0  0  0  0  0  0
    8.1225    7.8051   -2.7659 O   0  0  0  0  0  0  0  0  0  0  0  0
    6.2977    9.7675   -3.2794 N   0  0  0  0  0  0  0  0  0  0  0  0
    5.2101   10.4945   -3.6268 C   0  0  0  0  0  0  0  0  0  0  0  0
    5.2226   11.9861   -3.7342 C   0  0  0  0  0  0  0  0  0  0  0  0
    6.5201   12.6800   -3.5370 C   0  0  0  0  0  0  0  0  0  0  0  0
    5.4130   12.8204   -2.5452 C   0  0  0  0  0  0  0  0  0  0  0  0
    4.1664    9.6393   -3.8449 C   0  0  0  0  0  0  0  0  0  0  0  0
    2.3924   10.1186   -4.3591 Br  0  0  0  0  0  0  0  0  0  0  0  0
    3.8265    7.0832   -6.2377 N   0  0  0  0  0  0  0  0  0  0  0  0
  1  2  1  0
  2  3  1  0
  3  4  2  0
  4  5  1  0
  5  6  1  0
  6  7  1  0
  7  8  1  0
  8  9  1  0
  9 10  1  0
  8 11  2  0
 11 12  1  0
 12 13  1  0
 13 14  1  0
 14 15  1  0
 12 16  2  0
 16 17  1  0
  5 18  2  0
 18  2  1  0
 16  7  1  0
 15 13  1  0
M  END
$$$$
