protein_ligand_0
     RDKit          3D

 18 20  0  0  0  0  0  0  0  0999 V2000
    5.0504   13.4049   -2.0552 C   0  0  0  0  0  0  0  0  0  0  0  0
    5.3070   11.9926   -1.8292 N   0  0  0  0  0  0  0  0  0  0  0  0
    5.7442   11.4682   -0.6752 C   0  0  0  0  0  0  0  0  0  0  0  0
    5.8466   10.1336   -0.8998 N   0  0  0  0  0  0  0  0  0  0  0  0
    5.4806    9.8505   -2.1610 C   0  0  0  0  0  0  0  0  0  0  0  0
    5.4243    8.5536   -2.8667 C   0  0  0  0  0  0  0  0  0  0  0  0
    4.9689    8.6605   -4.2186 N   0  0  0  0  0  0  0  0  0  0  0  0
    3.6877    8.5335   -4.6026 C   0  0  0  0  0  0  0  0  0  0  0  0
    2.5325    8.2650   -3.7156 C   0  0  0  0  0  0  0  0  0  0  0  0
    2.3633    6.8806   -3.5125 O   0  0  0  0  0  0  0  0  0  0  0  0
    3.5695    8.6842   -5.9370 N   0  0  0  0  0  0  0  0  0  0  0  0
    4.8223    8.9126   -6.3959 C   0  0  0  0  0  0  0  0  0  0  0  0
    5.1368    9.1361   -7.8407 C   0  0  0  0  0  0  0  0  0  0  0  0
    6.2728   10.0343   -8.1673 C   0  0  0  0  0  0  0  0  0  0  0  0
    4.8659   10.4288   -8.4743 C   0  0  0  0  0  0  0  0  0  0  0  0
    5.6839    8.8976   -5.3349 C   0  0  0  0  0  0  0  0  0  0  0  0
    7.5723    9.1635   -5.4003 Br  0  0  0  0  0  0  0  0  0  0  0  0
    5.1512   11.0359   -2.7077 N   0  0  0  0  0  0  0  0  0  0  0  0
  1  2  1  0
  2  3  1  0
  3  4  2  0
  4  5  1  0
  5  6  1  0
  6  7  1  0
  7  8  1  0
  8  9  1  0
  9 10  1  0
  8 11  2  0
 11 12  1  0
 12 13  1  0
 13 14  1  0
 14 15  1  0
 12 16  2  0
 16 17  1  0
  5 18  2  0
 18  2  1  0
 16  7  1  0
 15 13  1  0
M  END
$$$$
