protein_ligand_0
     RDKit          3D

 18 20  0  0  0  0  0  0  0  0999 V2000
    0.6180    6.9789   -6.6325 C   0  0  0  0  0  0  0  0  0  0  0  0
    1.9184    6.8144   -6.0052 N   0  0  0  0  0  0  0  0  0  0  0  0
    2.7495    5.7851   -6.2228 C   0  0  0  0  0  0  0  0  0  0  0  0
    3.8357    6.0263   -5.4455 N   0  0  0  0  0  0  0  0  0  0  0  0
    3.6710    7.1756   -4.7696 C   0  0  0  0  0  0  0  0  0  0  0  0
    4.5679    7.8510   -3.8091 C   0  0  0  0  0  0  0  0  0  0  0  0
    4.9067    9.1876   -4.1898 N   0  0  0  0  0  0  0  0  0  0  0  0
    5.2484    9.5613   -5.4342 C   0  0  0  0  0  0  0  0  0  0  0  0
    5.3357    8.6768   -6.6189 C   0  0  0  0  0  0  0  0  0  0  0  0
    4.2500    8.8931   -7.4913 O   0  0  0  0  0  0  0  0  0  0  0  0
    5.5123   10.8824   -5.4831 N   0  0  0  0  0  0  0  0  0  0  0  0
    5.3276   11.3434   -4.2240 C   0  0  0  0  0  0  0  0  0  0  0  0
    5.5192   12.7761   -3.8404 C   0  0  0  0  0  0  0  0  0  0  0  0
    4.4118   13.7210   -4.1316 C   0  0  0  0  0  0  0  0  0  0  0  0
    5.7098   13.8060   -4.8646 C   0  0  0  0  0  0  0  0  0  0  0  0
    4.9542   10.2970   -3.4278 C   0  0  0  0  0  0  0  0  0  0  0  0
    4.5636   10.3716   -1.5615 Br  0  0  0  0  0  0  0  0  0  0  0  0
    2.4634    7.6366   -5.1459 N   0  0  0  0  0  0  0  0  0  0  0  0
  1  2  1  0
  2  3  1  0
  3  4  2  0
  4  5  1  0
  5  6  1  0
  6  7  1  0
  7  8  1  0
  8  9  1  0
  9 10  1  0
  8 11  2  0
 11 12  1  0
 12 13  1  0
 13 14  1  0
 14 15  1  0
 12 16  2  0
 16 17  1  0
  5 18  2  0
 18  2  1  0
 16  7  1  0
 15 13  1  0
M  END
$$$$
