protein_ligand_2
     RDKit          3D

 17 19  0  0  0  0  0  0  0  0999 V2000
    9.2533   10.0079   -2.7303 C   0  0  0  0  0  0  0  0  0  0  0  0
    8.9251   11.0745   -3.7637 C   0  0  0  0  0  0  0  0  0  0  0  0
    7.5961   10.7088   -4.3687 C   0  0  2  0  0  0  0  0  0  0  0  0
    7.2476   11.7104   -5.4712 C   0  0  0  0  0  0  0  0  0  0  0  0
    6.4926   10.6844   -3.4098 C   0  0  0  0  0  0  0  0  0  0  0  0
    5.5843    9.6923   -3.3324 N   0  0  0  0  0  0  0  0  0  0  0  0
    4.6134    9.7825   -2.4070 C   0  0  0  0  0  0  0  0  0  0  0  0
    3.3894    8.5146   -2.2520 Cl  0  0  0  0  0  0  0  0  0  0  0  0
    4.5192   10.8587   -1.5354 C   0  0  0  0  0  0  0  0  0  0  0  0
    3.6964   11.2220   -0.5411 N   0  0  0  0  0  0  0  0  0  0  0  0
    4.0727   12.3891   -0.0195 C   0  0  0  0  0  0  0  0  0  0  0  0
    3.4558   13.1638    1.0940 C   0  0  0  0  0  0  0  0  0  0  0  0
    4.4182   13.7575    2.0541 C   0  0  0  0  0  0  0  0  0  0  0  0
    3.7082   14.6496    1.0997 C   0  0  0  0  0  0  0  0  0  0  0  0
    5.1841   12.7799   -0.7171 C   0  0  0  0  0  0  0  0  0  0  0  0
    5.4504   11.8374   -1.6430 N   0  0  0  0  0  0  0  0  0  0  0  0
    6.3764   11.7160   -2.5515 N   0  0  0  0  0  0  0  0  0  0  0  0
  1  2  1  0
  2  3  1  0
  3  4  1  6
  3  5  1  0
  5  6  1  0
  6  7  2  0
  7  8  1  0
  7  9  1  0
  9 10  2  0
 10 11  1  0
 11 12  1  0
 12 13  1  0
 13 14  1  0
 11 15  2  0
 15 16  1  0
 16 17  1  0
 17  5  2  0
 16  9  1  0
 14 12  1  0
M  END
$$$$
