protein_ligand_2
     RDKit          3D

 17 19  0  0  0  0  0  0  0  0999 V2000
    0.7396    8.2937   -7.6093 C   0  0  0  0  0  0  0  0  0  0  0  0
    1.9263    8.0941   -8.5395 C   0  0  0  0  0  0  0  0  0  0  0  0
    2.8626    9.2513   -8.3151 C   0  0  2  0  0  0  0  0  0  0  0  0
    4.0179    9.1705   -9.3146 C   0  0  0  0  0  0  0  0  0  0  0  0
    3.4285    9.3060   -6.9681 C   0  0  0  0  0  0  0  0  0  0  0  0
    3.6551   10.4494   -6.2924 N   0  0  0  0  0  0  0  0  0  0  0  0
    4.1804   10.3713   -5.0575 C   0  0  0  0  0  0  0  0  0  0  0  0
    4.5027   11.8341   -4.1163 Cl  0  0  0  0  0  0  0  0  0  0  0  0
    4.4941    9.1574   -4.4620 C   0  0  0  0  0  0  0  0  0  0  0  0
    5.0099    8.7670   -3.2875 N   0  0  0  0  0  0  0  0  0  0  0  0
    5.1020    7.4388   -3.2305 C   0  0  0  0  0  0  0  0  0  0  0  0
    5.6124    6.5784   -2.1260 C   0  0  0  0  0  0  0  0  0  0  0  0
    4.8787    5.3036   -1.9333 C   0  0  0  0  0  0  0  0  0  0  0  0
    6.2405    5.2691   -2.5292 C   0  0  0  0  0  0  0  0  0  0  0  0
    4.6222    6.9700   -4.4241 C   0  0  0  0  0  0  0  0  0  0  0  0
    4.2523    8.0285   -5.1717 N   0  0  0  0  0  0  0  0  0  0  0  0
    3.7426    8.1430   -6.3654 N   0  0  0  0  0  0  0  0  0  0  0  0
  1  2  1  0
  2  3  1  0
  3  4  1  6
  3  5  1  0
  5  6  1  0
  6  7  2  0
  7  8  1  0
  7  9  1  0
  9 10  2  0
 10 11  1  0
 11 12  1  0
 12 13  1  0
 13 14  1  0
 11 15  2  0
 15 16  1  0
 16 17  1  0
 17  5  2  0
 16  9  1  0
 14 12  1  0
M  END
$$$$
