protein_ligand_2
     RDKit          3D

 17 19  0  0  0  0  0  0  0  0999 V2000
    8.0776   11.6171   -2.6275 C   0  0  0  0  0  0  0  0  0  0  0  0
    7.4275   11.3168   -1.2857 C   0  0  0  0  0  0  0  0  0  0  0  0
    5.9453   11.5141   -1.4592 C   0  0  2  0  0  0  0  0  0  0  0  0
    5.2366   11.2276   -0.1342 C   0  0  0  0  0  0  0  0  0  0  0  0
    5.3486   10.6638   -2.4882 C   0  0  0  0  0  0  0  0  0  0  0  0
    4.6016   11.1284   -3.5088 N   0  0  0  0  0  0  0  0  0  0  0  0
    4.1060   10.2465   -4.3941 C   0  0  0  0  0  0  0  0  0  0  0  0
    3.1175   10.7898   -5.7570 Cl  0  0  0  0  0  0  0  0  0  0  0  0
    4.3390    8.8821   -4.2894 C   0  0  0  0  0  0  0  0  0  0  0  0
    3.9945    7.7911   -4.9885 N   0  0  0  0  0  0  0  0  0  0  0  0
    4.5031    6.6930   -4.4308 C   0  0  0  0  0  0  0  0  0  0  0  0
    4.3770    5.2731   -4.8653 C   0  0  0  0  0  0  0  0  0  0  0  0
    4.3330    5.0678   -6.3338 C   0  0  0  0  0  0  0  0  0  0  0  0
    5.5608    4.6838   -5.5883 C   0  0  0  0  0  0  0  0  0  0  0  0
    5.2004    7.1107   -3.3290 C   0  0  0  0  0  0  0  0  0  0  0  0
    5.0947    8.4519   -3.2501 N   0  0  0  0  0  0  0  0  0  0  0  0
    5.5581    9.3354   -2.4119 N   0  0  0  0  0  0  0  0  0  0  0  0
  1  2  1  0
  2  3  1  0
  3  4  1  1
  3  5  1  0
  5  6  1  0
  6  7  2  0
  7  8  1  0
  7  9  1  0
  9 10  2  0
 10 11  1  0
 11 12  1  0
 12 13  1  0
 13 14  1  0
 11 15  2  0
 15 16  1  0
 16 17  1  0
 17  5  2  0
 16  9  1  0
 14 12  1  0
M  END
$$$$
