protein_ligand_2
     RDKit          3D

 17 19  0  0  0  0  0  0  0  0999 V2000
    8.5902   11.6933   -2.1082 C   0  0  0  0  0  0  0  0  0  0  0  0
    8.1021   11.1434   -0.7768 C   0  0  0  0  0  0  0  0  0  0  0  0
    6.6533   11.5297   -0.6440 C   0  0  2  0  0  0  0  0  0  0  0  0
    6.0853   10.9341    0.6454 C   0  0  0  0  0  0  0  0  0  0  0  0
    5.8154   11.0876   -1.7578 C   0  0  0  0  0  0  0  0  0  0  0  0
    5.2396   11.9228   -2.6445 N   0  0  0  0  0  0  0  0  0  0  0  0
    4.4895   11.3960   -3.6278 C   0  0  0  0  0  0  0  0  0  0  0  0
    3.7054   12.4362   -4.8249 Cl  0  0  0  0  0  0  0  0  0  0  0  0
    4.2916   10.0281   -3.7561 C   0  0  0  0  0  0  0  0  0  0  0  0
    3.6223    9.2279   -4.5983 N   0  0  0  0  0  0  0  0  0  0  0  0
    3.7723    7.9493   -4.2542 C   0  0  0  0  0  0  0  0  0  0  0  0
    3.2115    6.7296   -4.9012 C   0  0  0  0  0  0  0  0  0  0  0  0
    2.8103    6.8995   -6.3192 C   0  0  0  0  0  0  0  0  0  0  0  0
    4.0340    6.1155   -6.0048 C   0  0  0  0  0  0  0  0  0  0  0  0
    4.5732    7.9429   -3.1438 C   0  0  0  0  0  0  0  0  0  0  0  0
    4.8864    9.2193   -2.8458 N   0  0  0  0  0  0  0  0  0  0  0  0
    5.6061    9.7654   -1.9069 N   0  0  0  0  0  0  0  0  0  0  0  0
  1  2  1  0
  2  3  1  0
  3  4  1  1
  3  5  1  0
  5  6  1  0
  6  7  2  0
  7  8  1  0
  7  9  1  0
  9 10  2  0
 10 11  1  0
 11 12  1  0
 12 13  1  0
 13 14  1  0
 11 15  2  0
 15 16  1  0
 16 17  1  0
 17  5  2  0
 16  9  1  0
 14 12  1  0
M  END
$$$$
