protein_ligand_2
     RDKit          3D

 17 19  0  0  0  0  0  0  0  0999 V2000
    5.6885    6.2666   -3.8590 C   0  0  0  0  0  0  0  0  0  0  0  0
    5.8519    7.2418   -5.0147 C   0  0  0  0  0  0  0  0  0  0  0  0
    4.5488    7.9821   -5.1553 C   0  0  2  0  0  0  0  0  0  0  0  0
    4.6415    8.9535   -6.3333 C   0  0  0  0  0  0  0  0  0  0  0  0
    4.1655    8.7425   -3.9667 C   0  0  0  0  0  0  0  0  0  0  0  0
    2.9646    8.6427   -3.3640 N   0  0  0  0  0  0  0  0  0  0  0  0
    2.7292    9.3951   -2.2752 C   0  0  0  0  0  0  0  0  0  0  0  0
    1.1739    9.3122   -1.4362 Cl  0  0  0  0  0  0  0  0  0  0  0  0
    3.6786   10.2651   -1.7570 C   0  0  0  0  0  0  0  0  0  0  0  0
    3.7404   11.1169   -0.7234 N   0  0  0  0  0  0  0  0  0  0  0  0
    4.9265   11.7227   -0.6811 C   0  0  0  0  0  0  0  0  0  0  0  0
    5.4303   12.7364    0.2881 C   0  0  0  0  0  0  0  0  0  0  0  0
    6.2213   12.1871    1.4165 C   0  0  0  0  0  0  0  0  0  0  0  0
    6.9236   12.9335    0.3392 C   0  0  0  0  0  0  0  0  0  0  0  0
    5.6461   11.2302   -1.7367 C   0  0  0  0  0  0  0  0  0  0  0  0
    4.8748   10.3387   -2.3898 N   0  0  0  0  0  0  0  0  0  0  0  0
    5.0671    9.5947   -3.4421 N   0  0  0  0  0  0  0  0  0  0  0  0
  1  2  1  0
  2  3  1  0
  3  4  1  6
  3  5  1  0
  5  6  1  0
  6  7  2  0
  7  8  1  0
  7  9  1  0
  9 10  2  0
 10 11  1  0
 11 12  1  0
 12 13  1  0
 13 14  1  0
 11 15  2  0
 15 16  1  0
 16 17  1  0
 17  5  2  0
 16  9  1  0
 14 12  1  0
M  END
$$$$
