protein_ligand_2
     RDKit          3D

 17 19  0  0  0  0  0  0  0  0999 V2000
    8.7594   11.7791   -0.8402 C   0  0  0  0  0  0  0  0  0  0  0  0
    7.9223   11.3617    0.3591 C   0  0  0  0  0  0  0  0  0  0  0  0
    6.5562   11.9667    0.1760 C   0  0  2  0  0  0  0  0  0  0  0  0
    5.6492   11.5300    1.3278 C   0  0  0  0  0  0  0  0  0  0  0  0
    5.9061   11.5984   -1.0808 C   0  0  0  0  0  0  0  0  0  0  0  0
    5.5562   12.4830   -2.0349 N   0  0  0  0  0  0  0  0  0  0  0  0
    4.9630   12.0224   -3.1499 C   0  0  0  0  0  0  0  0  0  0  0  0
    4.4782   13.1300   -4.4414 Cl  0  0  0  0  0  0  0  0  0  0  0  0
    4.7021   10.6733   -3.3463 C   0  0  0  0  0  0  0  0  0  0  0  0
    4.1447    9.9324   -4.3149 N   0  0  0  0  0  0  0  0  0  0  0  0
    4.1457    8.6421   -3.9821 C   0  0  0  0  0  0  0  0  0  0  0  0
    3.6322    7.4728   -4.7499 C   0  0  0  0  0  0  0  0  0  0  0  0
    3.8967    7.5149   -6.2090 C   0  0  0  0  0  0  0  0  0  0  0  0
    4.6666    6.5646   -5.3634 C   0  0  0  0  0  0  0  0  0  0  0  0
    4.7307    8.5657   -2.7466 C   0  0  0  0  0  0  0  0  0  0  0  0
    5.0682    9.8134   -2.3649 N   0  0  0  0  0  0  0  0  0  0  0  0
    5.6407   10.2959   -1.2985 N   0  0  0  0  0  0  0  0  0  0  0  0
  1  2  1  0
  2  3  1  0
  3  4  1  1
  3  5  1  0
  5  6  1  0
  6  7  2  0
  7  8  1  0
  7  9  1  0
  9 10  2  0
 10 11  1  0
 11 12  1  0
 12 13  1  0
 13 14  1  0
 11 15  2  0
 15 16  1  0
 16 17  1  0
 17  5  2  0
 16  9  1  0
 14 12  1  0
M  END
$$$$
