protein_ligand_2
     RDKit          3D

 22 23  0  0  0  0  0  0  0  0999 V2000
    4.2240    3.0491   -8.5452 C   0  0  0  0  0  0  0  0  0  0  0  0
    4.6416    3.3613   -7.1237 C   0  0  0  0  0  0  0  0  0  0  0  0
    4.6155    2.1044   -6.2622 C   0  0  0  0  0  0  0  0  0  0  0  0
    3.7466    4.4086   -6.5942 C   0  0  0  0  0  0  0  0  0  0  0  0
    2.7232    4.7850   -7.2283 O   0  0  0  0  0  0  0  0  0  0  0  0
    3.9683    5.0461   -5.3715 O   0  0  0  0  0  0  0  0  0  0  0  0
    3.1830    6.1625   -4.9517 C   0  0  0  0  0  0  0  0  0  0  0  0
    3.7846    6.6151   -3.6196 C   0  0  2  0  0  0  0  0  0  0  0  0
    3.5891    5.5663   -2.7242 O   0  0  0  0  0  0  0  0  0  0  0  0
    3.1907    7.9081   -3.1593 C   0  0  0  0  0  0  0  0  0  0  0  0
    4.1875    8.9575   -3.0182 N   0  0  0  0  0  0  0  0  0  0  0  0
    4.3136    9.9656   -3.8781 C   0  0  0  0  0  0  0  0  0  0  0  0
    5.3603   10.7676   -3.4293 C   0  0  0  0  0  0  0  0  0  0  0  0
    5.8388   10.1970   -2.2842 C   0  0  0  0  0  0  0  0  0  0  0  0
    6.9352   10.6618   -1.4375 C   0  0  0  0  0  0  0  0  0  0  0  0
    7.9689    9.7812   -1.1023 C   0  0  0  0  0  0  0  0  0  0  0  0
    9.0246   10.1641   -0.3098 C   0  0  0  0  0  0  0  0  0  0  0  0
    9.0967   11.4409    0.1834 C   0  0  0  0  0  0  0  0  0  0  0  0
    8.0845   12.3160   -0.1404 C   0  0  0  0  0  0  0  0  0  0  0  0
    7.0113   11.9258   -0.9463 C   0  0  0  0  0  0  0  0  0  0  0  0
    6.0528   12.8434   -1.2217 F   0  0  0  0  0  0  0  0  0  0  0  0
    5.0898    9.0909   -2.0717 N   0  0  0  0  0  0  0  0  0  0  0  0
  1  2  1  0
  2  3  1  0
  2  4  1  0
  4  5  2  0
  4  6  1  0
  6  7  1  0
  7  8  1  0
  8  9  1  1
  8 10  1  0
 10 11  1  0
 11 12  1  0
 12 13  2  0
 13 14  1  0
 14 15  1  0
 15 16  2  0
 16 17  1  0
 17 18  2  0
 18 19  1  0
 19 20  2  0
 20 21  1  0
 14 22  2  0
 22 11  1  0
 20 15  1  0
M  END
$$$$
