protein_ligand_2
     RDKit          3D

 22 23  0  0  0  0  0  0  0  0999 V2000
    6.1613    4.4611   -7.6660 C   0  0  0  0  0  0  0  0  0  0  0  0
    5.2420    3.5021   -6.9395 C   0  0  0  0  0  0  0  0  0  0  0  0
    4.6445    2.4864   -7.9058 C   0  0  0  0  0  0  0  0  0  0  0  0
    4.1976    4.2873   -6.2531 C   0  0  0  0  0  0  0  0  0  0  0  0
    3.1952    4.7368   -6.8729 O   0  0  0  0  0  0  0  0  0  0  0  0
    4.2470    4.5825   -4.8889 O   0  0  0  0  0  0  0  0  0  0  0  0
    3.3815    5.5520   -4.2971 C   0  0  0  0  0  0  0  0  0  0  0  0
    4.2474    6.7910   -4.0599 C   0  0  2  0  0  0  0  0  0  0  0  0
    5.2742    6.3947   -3.2064 O   0  0  0  0  0  0  0  0  0  0  0  0
    3.4402    7.9323   -3.5286 C   0  0  0  0  0  0  0  0  0  0  0  0
    4.2533    9.1058   -3.2521 N   0  0  0  0  0  0  0  0  0  0  0  0
    4.3657   10.1313   -4.0930 C   0  0  0  0  0  0  0  0  0  0  0  0
    5.2163   11.0631   -3.5026 C   0  0  0  0  0  0  0  0  0  0  0  0
    5.5950   10.5498   -2.2946 C   0  0  0  0  0  0  0  0  0  0  0  0
    6.4819   11.1497   -1.3004 C   0  0  0  0  0  0  0  0  0  0  0  0
    7.5730   10.4188   -0.8191 C   0  0  0  0  0  0  0  0  0  0  0  0
    8.4395   10.9329    0.1158 C   0  0  0  0  0  0  0  0  0  0  0  0
    8.2569   12.1974    0.6122 C   0  0  0  0  0  0  0  0  0  0  0  0
    7.1861   12.9256    0.1453 C   0  0  0  0  0  0  0  0  0  0  0  0
    6.3054   12.4021   -0.8054 C   0  0  0  0  0  0  0  0  0  0  0  0
    5.2741   13.1792   -1.2168 F   0  0  0  0  0  0  0  0  0  0  0  0
    4.9805    9.3499   -2.1847 N   0  0  0  0  0  0  0  0  0  0  0  0
  1  2  1  0
  2  3  1  0
  2  4  1  0
  4  5  2  0
  4  6  1  0
  6  7  1  0
  7  8  1  0
  8  9  1  1
  8 10  1  0
 10 11  1  0
 11 12  1  0
 12 13  2  0
 13 14  1  0
 14 15  1  0
 15 16  2  0
 16 17  1  0
 17 18  2  0
 18 19  1  0
 19 20  2  0
 20 21  1  0
 14 22  2  0
 22 11  1  0
 20 15  1  0
M  END
$$$$
