protein_ligand_2
     RDKit          3D

 22 23  0  0  0  0  0  0  0  0999 V2000
    2.3595    5.7764   -4.5975 C   0  0  0  0  0  0  0  0  0  0  0  0
    2.8666    6.8696   -5.5143 C   0  0  0  0  0  0  0  0  0  0  0  0
    2.6667    6.4878   -6.9760 C   0  0  0  0  0  0  0  0  0  0  0  0
    4.2873    7.1189   -5.2012 C   0  0  0  0  0  0  0  0  0  0  0  0
    4.9963    6.2540   -4.6177 O   0  0  0  0  0  0  0  0  0  0  0  0
    4.9351    8.3130   -5.5250 O   0  0  0  0  0  0  0  0  0  0  0  0
    6.3579    8.4307   -5.4895 C   0  0  0  0  0  0  0  0  0  0  0  0
    6.6549    9.5774   -4.5210 C   0  0  2  0  0  0  0  0  0  0  0  0
    7.9349   10.0311   -4.8306 O   0  0  0  0  0  0  0  0  0  0  0  0
    6.5054    9.1468   -3.0967 C   0  0  0  0  0  0  0  0  0  0  0  0
    6.6098   10.2598   -2.1666 N   0  0  0  0  0  0  0  0  0  0  0  0
    7.6769   10.4738   -1.4004 C   0  0  0  0  0  0  0  0  0  0  0  0
    7.4257   11.6174   -0.6460 C   0  0  0  0  0  0  0  0  0  0  0  0
    6.1822   12.0619   -0.9955 C   0  0  0  0  0  0  0  0  0  0  0  0
    5.4669   13.2285   -0.4834 C   0  0  0  0  0  0  0  0  0  0  0  0
    4.7271   14.0251   -1.3634 C   0  0  0  0  0  0  0  0  0  0  0  0
    4.0352   15.1336   -0.9372 C   0  0  0  0  0  0  0  0  0  0  0  0
    4.0500   15.4970    0.3844 C   0  0  0  0  0  0  0  0  0  0  0  0
    4.7751   14.7199    1.2593 C   0  0  0  0  0  0  0  0  0  0  0  0
    5.4784   13.5928    0.8250 C   0  0  0  0  0  0  0  0  0  0  0  0
    6.1694   12.8774    1.7455 F   0  0  0  0  0  0  0  0  0  0  0  0
    5.7213   11.1990   -1.9296 N   0  0  0  0  0  0  0  0  0  0  0  0
  1  2  1  0
  2  3  1  0
  2  4  1  0
  4  5  2  0
  4  6  1  0
  6  7  1  0
  7  8  1  0
  8  9  1  1
  8 10  1  0
 10 11  1  0
 11 12  1  0
 12 13  2  0
 13 14  1  0
 14 15  1  0
 15 16  2  0
 16 17  1  0
 17 18  2  0
 18 19  1  0
 19 20  2  0
 20 21  1  0
 14 22  2  0
 22 11  1  0
 20 15  1  0
M  END
$$$$
