protein_ligand_2
     RDKit          3D

 22 23  0  0  0  0  0  0  0  0999 V2000
    4.5381    4.3678   -7.8750 C   0  0  0  0  0  0  0  0  0  0  0  0
    3.3393    4.8951   -7.1152 C   0  0  0  0  0  0  0  0  0  0  0  0
    3.0822    6.3582   -7.4553 C   0  0  0  0  0  0  0  0  0  0  0  0
    3.5798    4.7009   -5.6720 C   0  0  0  0  0  0  0  0  0  0  0  0
    4.4474    3.8879   -5.2509 O   0  0  0  0  0  0  0  0  0  0  0  0
    2.8729    5.3943   -4.6872 O   0  0  0  0  0  0  0  0  0  0  0  0
    3.3966    5.5740   -3.3708 C   0  0  0  0  0  0  0  0  0  0  0  0
    3.4069    7.0852   -3.1314 C   0  0  2  0  0  0  0  0  0  0  0  0
    2.0937    7.5181   -3.2987 O   0  0  0  0  0  0  0  0  0  0  0  0
    4.3801    7.7778   -4.0312 C   0  0  0  0  0  0  0  0  0  0  0  0
    4.7648    9.0874   -3.5295 N   0  0  0  0  0  0  0  0  0  0  0  0
    4.4653   10.2250   -4.1521 C   0  0  0  0  0  0  0  0  0  0  0  0
    4.9884   11.2671   -3.3902 C   0  0  0  0  0  0  0  0  0  0  0  0
    5.6003   10.7027   -2.3072 C   0  0  0  0  0  0  0  0  0  0  0  0
    6.2976   11.3776   -1.2147 C   0  0  0  0  0  0  0  0  0  0  0  0
    7.4975   10.8469   -0.7301 C   0  0  0  0  0  0  0  0  0  0  0  0
    8.1955   11.4394    0.2950 C   0  0  0  0  0  0  0  0  0  0  0  0
    7.7286   12.5866    0.8821 C   0  0  0  0  0  0  0  0  0  0  0  0
    6.5485   13.1177    0.4129 C   0  0  0  0  0  0  0  0  0  0  0  0
    5.8393   12.5144   -0.6296 C   0  0  0  0  0  0  0  0  0  0  0  0
    4.6851   13.0960   -1.0372 F   0  0  0  0  0  0  0  0  0  0  0  0
    5.4376    9.3661   -2.4353 N   0  0  0  0  0  0  0  0  0  0  0  0
  1  2  1  0
  2  3  1  0
  2  4  1  0
  4  5  2  0
  4  6  1  0
  6  7  1  0
  7  8  1  0
  8  9  1  6
  8 10  1  0
 10 11  1  0
 11 12  1  0
 12 13  2  0
 13 14  1  0
 14 15  1  0
 15 16  2  0
 16 17  1  0
 17 18  2  0
 18 19  1  0
 19 20  2  0
 20 21  1  0
 14 22  2  0
 22 11  1  0
 20 15  1  0
M  END
$$$$
