protein_ligand_2
     RDKit          3D

 22 23  0  0  0  0  0  0  0  0999 V2000
    4.6779    1.6964   -3.5605 C   0  0  0  0  0  0  0  0  0  0  0  0
    4.7288    2.0620   -5.0290 C   0  0  0  0  0  0  0  0  0  0  0  0
    5.9732    1.4812   -5.6897 C   0  0  0  0  0  0  0  0  0  0  0  0
    4.6809    3.5326   -5.1453 C   0  0  0  0  0  0  0  0  0  0  0  0
    5.5378    4.1699   -5.8166 O   0  0  0  0  0  0  0  0  0  0  0  0
    3.6972    4.3086   -4.5285 O   0  0  0  0  0  0  0  0  0  0  0  0
    3.4216    5.6459   -4.9471 C   0  0  0  0  0  0  0  0  0  0  0  0
    4.0631    6.5508   -3.8931 C   0  0  2  0  0  0  0  0  0  0  0  0
    3.5051    6.1857   -2.6703 O   0  0  0  0  0  0  0  0  0  0  0  0
    3.8764    7.9973   -4.2234 C   0  0  0  0  0  0  0  0  0  0  0  0
    4.5111    8.8746   -3.2526 N   0  0  0  0  0  0  0  0  0  0  0  0
    3.8328    9.5667   -2.3404 C   0  0  0  0  0  0  0  0  0  0  0  0
    4.7590   10.2887   -1.5914 C   0  0  0  0  0  0  0  0  0  0  0  0
    5.9950    9.9964   -2.0945 C   0  0  0  0  0  0  0  0  0  0  0  0
    7.2908   10.5034   -1.6485 C   0  0  0  0  0  0  0  0  0  0  0  0
    8.4499    9.7703   -1.9230 C   0  0  0  0  0  0  0  0  0  0  0  0
    9.6945   10.1990   -1.5277 C   0  0  0  0  0  0  0  0  0  0  0  0
    9.8388   11.3769   -0.8417 C   0  0  0  0  0  0  0  0  0  0  0  0
    8.7045   12.1065   -0.5662 C   0  0  0  0  0  0  0  0  0  0  0  0
    7.4392   11.6697   -0.9686 C   0  0  0  0  0  0  0  0  0  0  0  0
    6.3692   12.4424   -0.6608 F   0  0  0  0  0  0  0  0  0  0  0  0
    5.7933    9.1264   -3.1103 N   0  0  0  0  0  0  0  0  0  0  0  0
  1  2  1  0
  2  3  1  0
  2  4  1  0
  4  5  2  0
  4  6  1  0
  6  7  1  0
  7  8  1  0
  8  9  1  1
  8 10  1  0
 10 11  1  0
 11 12  1  0
 12 13  2  0
 13 14  1  0
 14 15  1  0
 15 16  2  0
 16 17  1  0
 17 18  2  0
 18 19  1  0
 19 20  2  0
 20 21  1  0
 14 22  2  0
 22 11  1  0
 20 15  1  0
M  END
$$$$
