protein_ligand_0
     RDKit          3D

 18 20  0  0  0  0  0  0  0  0999 V2000
    4.4200   12.2375   -0.1095 C   0  0  0  0  0  0  0  0  0  0  0  0
    5.3990   11.4826   -0.8733 N   0  0  0  0  0  0  0  0  0  0  0  0
    6.7272   11.5640   -0.7093 C   0  0  0  0  0  0  0  0  0  0  0  0
    7.2571   10.7025   -1.6142 N   0  0  0  0  0  0  0  0  0  0  0  0
    6.2754   10.1095   -2.3138 C   0  0  0  0  0  0  0  0  0  0  0  0
    6.3510    9.1075   -3.3971 C   0  0  0  0  0  0  0  0  0  0  0  0
    5.1106    8.9169   -4.0836 N   0  0  0  0  0  0  0  0  0  0  0  0
    4.2299    7.9405   -3.8077 C   0  0  0  0  0  0  0  0  0  0  0  0
    4.3769    6.9014   -2.7626 C   0  0  0  0  0  0  0  0  0  0  0  0
    3.2054    6.1252   -2.6545 O   0  0  0  0  0  0  0  0  0  0  0  0
    3.1575    8.0176   -4.6209 N   0  0  0  0  0  0  0  0  0  0  0  0
    3.3820    9.0797   -5.4294 C   0  0  0  0  0  0  0  0  0  0  0  0
    2.4238    9.5174   -6.4908 C   0  0  0  0  0  0  0  0  0  0  0  0
    0.9775    9.5170   -6.1558 C   0  0  0  0  0  0  0  0  0  0  0  0
    1.5392    8.5505   -7.1455 C   0  0  0  0  0  0  0  0  0  0  0  0
    4.5867    9.6330   -5.0967 C   0  0  0  0  0  0  0  0  0  0  0  0
    5.4029   11.1535   -5.9111 Br  0  0  0  0  0  0  0  0  0  0  0  0
    5.1319   10.6225   -1.8221 N   0  0  0  0  0  0  0  0  0  0  0  0
  1  2  1  0
  2  3  1  0
  3  4  2  0
  4  5  1  0
  5  6  1  0
  6  7  1  0
  7  8  1  0
  8  9  1  0
  9 10  1  0
  8 11  2  0
 11 12  1  0
 12 13  1  0
 13 14  1  0
 14 15  1  0
 12 16  2  0
 16 17  1  0
  5 18  2  0
 18  2  1  0
 16  7  1  0
 15 13  1  0
M  END
$$$$
